# created with PyMOL 2.5.5
@<TRIPOS>MOLECULE
FPP_A_new
49 48 1                 
SMALL
USER_CHARGES
@<TRIPOS>ATOM
1	  PA	25.853	24.183	29.408	p5	344	FPA	0.000	
2	  PB	23.026	24.319	29.284	p5	344	FPA	0.000	
3	  C1	25.452	26.890	29.236	c3	344	FPA	0.000	
4	 O01	25.817	25.532	28.696	os	344	FPA	0.000	
5	 O1A	25.779	24.979	30.802	o	344	FPA	-1.000	
6	 O1B	22.005	23.372	30.092	o	344	FPA	-1.000	
7	  C2	26.407	27.888	29.367	c2	344	FPA	0.000	
8	 O2A	27.022	23.276	29.374	o	344	FPA	0.000	
9	 O2B	23.272	25.616	30.195	o	344	FPA	-1.000	
10	  C3	26.163	29.172	29.848	c2	344	FPA	0.000	
11	 O3A	24.410	23.491	29.195	os	344	FPA	0.000	
12	 O3B	22.510	24.718	27.957	o	344	FPA	0.000	
13	  C4	24.751	29.593	30.260	c3	344	FPA	0.000	
14	  C5	27.301	30.187	29.935	c3	344	FPA	0.000	
15	  C6	27.890	30.398	28.539	c3	344	FPA	0.000	
16	  C7	28.747	31.495	28.527  c2	344	FPA	0.000	
17	  C8	28.725	32.540	27.616	c2	344	FPA	0.000	
18	  C9	27.719	32.550	26.461	c3	344	FPA	0.000	
19	 C10	29.748	33.669	27.773	c3	344	FPA	0.000	
20	 C11	29.092	34.923	28.356	c3	344	FPA	0.000	
21	 C12	28.397	34.658	29.530  c2	344	FPA	0.000	
22	 C13	27.501	35.530	30.144	c2	344	FPA	0.000	
23	 C14	26.785	35.122	31.434	c3	344	FPA	0.000	
24	 C15	27.232	36.904	29.528	c3	344	FPA	0.000	
25	 H03	27.428	27.648	29.070	ha	344	FPA	0.000	
26	 H11	29.507	31.536	29.307	ha	344	FPA	0.000	
27	 H19	28.566	33.693	30.007	ha	344	FPA	0.000	
28	 H01	25.308	26.446	30.221	h1	344	FPA	0.000	
29	 H02	24.534	27.335	28.852	h1	344	FPA	0.000	
30	 H04	24.054	28.783	30.047	hc	344	FPA	0.000	
31	 H05	24.734	29.814	31.327	hc	344	FPA	0.000	
32	 H06	24.458	30.481	29.699	hc	344	FPA	0.000	
33	 H07	28.074	29.815	30.608	hc	344	FPA	0.000	
34	 H08	26.919	31.133	30.318	hc	344	FPA	0.000	
35	 H09	27.075	30.583	27.839	hc	344	FPA	0.000	
36	 H10	28.444	29.507	28.245	hc	344	FPA	0.000	
37	 H12	26.852	33.148	26.741	hc	344	FPA	0.000	
38	 H13	28.186	32.981	25.575	hc	344	FPA	0.000	
39	 H14	27.402	31.530	26.246	hc	344	FPA	0.000	
40	 H15	30.152	33.912	26.790	hc	344	FPA	0.000	
41	 H16	30.545	33.339	28.440	hc	344	FPA	0.000	
42	 H17	28.377	35.296	27.623	hc	344	FPA	0.000	
43	 H18	29.867	35.660	28.566	hc	344	FPA	0.000	
44	 H20	25.782	34.768	31.196	hc	344	FPA	0.000	
45	 H21	27.344	34.325	31.924	hc	344	FPA	0.000	
46	 H22	26.717	35.982	32.100	hc	344	FPA	0.000	
47	 H23	26.360	37.351	30.006	hc	344	FPA	0.000	
48	 H24	28.099	37.547	29.680	hc	344	FPA	0.000	
49	 H25	27.044	36.793	28.460	hc	344	FPA	0.000	
@<TRIPOS>BOND
1 1 5 1
2 1 8 2
3 1 11 1
4 2 6 1
5 2 9 1
6 2 12 2
7 3 7 1
8 3 28 1
9 3 29 1
10 1 4 1
11 3 4 1
12 7 10 2
13 7 25 1
14 10 13 1
15 10 14 1
16 2 11 1
17 13 30 1
18 13 31 1
19 13 32 1
20 14 15 1
21 14 33 1
22 14 34 1
23 15 16 1
24 15 35 1
25 15 36 1
26 16 17 2
27 16 26 1
28 17 18 1
29 17 19 1
30 18 37 1
31 18 38 1
32 18 39 1
33 19 20 1
34 19 40 1
35 19 41 1
36 20 21 1
37 20 42 1
38 20 43 1
39 21 22 2
40 21 27 1
41 22 23 1
42 22 24 1
43 23 44 1
44 23 45 1
45 23 46 1
46 24 47 1
47 24 48 1
48 24 49 1
@<TRIPOS>SUBSTRUCTURE
1	FPA	1	GROUP	1 A	FPA
