@<TRIPOS>MOLECULE
FPA
   49    48     1     0     0
SMALL
bcc


@<TRIPOS>ATOM
      1 O01         25.8170    25.5320    28.6960 os       344 FPA      -0.597200
      2 C1          25.4520    26.8900    29.2360 c3       344 FPA       0.160600
      3 C2          26.4070    27.8880    29.3670 c2       344 FPA      -0.077200
      4 C3          26.1630    29.1720    29.8480 c2       344 FPA      -0.252400
      5 C4          24.7510    29.5930    30.2600 c3       344 FPA      -0.068900
      6 C5          27.3010    30.1870    29.9350 c3       344 FPA      -0.004200
      7 C6          27.8900    30.3980    28.5390 c3       344 FPA      -0.068200
      8 C7          28.7470    31.4950    28.5270 c2       344 FPA      -0.104200
      9 C8          28.7250    32.5400    27.6160 c2       344 FPA      -0.204400
     10 C9          27.7190    32.5500    26.4610 c3       344 FPA      -0.040900
     11 C10         29.7480    33.6690    27.7730 c3       344 FPA      -0.022200
     12 C11         29.0920    34.9230    28.3560 c3       344 FPA      -0.045200
     13 C12         28.3970    34.6580    29.5300 c2       344 FPA      -0.141200
     14 C13         27.5010    35.5300    30.1440 c2       344 FPA      -0.160400
     15 C14         26.7850    35.1220    31.4340 c3       344 FPA      -0.048400
     16 C15         27.2320    36.9040    29.5280 c3       344 FPA      -0.048400
     17 H01         25.3080    26.4460    30.2210 h1       344 FPA       0.079200
     18 H02         24.5340    27.3350    28.8520 h1       344 FPA       0.079200
     19 H03         27.4280    27.6480    29.0700 ha       344 FPA       0.097000
     20 H04         24.0540    28.7830    30.0470 hc       344 FPA       0.046700
     21 H05         24.7340    29.8140    31.3270 hc       344 FPA       0.046700
     22 H06         24.4580    30.4810    29.6990 hc       344 FPA       0.046700
     23 H07         28.0740    29.8150    30.6080 hc       344 FPA       0.017700
     24 H08         26.9190    31.1330    30.3180 hc       344 FPA       0.017700
     25 H09         27.0750    30.5830    27.8390 hc       344 FPA       0.056200
     26 H10         28.4440    29.5070    28.2450 hc       344 FPA       0.056200
     27 H11         29.5070    31.5360    29.3070 ha       344 FPA       0.113000
     28 H12         26.8520    33.1480    26.7410 hc       344 FPA       0.030367
     29 H13         28.1860    32.9810    25.5750 hc       344 FPA       0.030367
     30 H14         27.4020    31.5300    26.2460 hc       344 FPA       0.030367
     31 H15         30.1520    33.9120    26.7900 hc       344 FPA       0.031700
     32 H16         30.5450    33.3390    28.4400 hc       344 FPA       0.031700
     33 H17         28.3770    35.2960    27.6230 hc       344 FPA       0.035200
     34 H18         29.8670    35.6600    28.5660 hc       344 FPA       0.035200
     35 H19         28.5660    33.6930    30.0070 ha       344 FPA       0.151000
     36 H20         25.7820    34.7680    31.1960 hc       344 FPA       0.032033
     37 H21         27.3440    34.3250    31.9240 hc       344 FPA       0.032033
     38 H22         26.7170    35.9820    32.1000 hc       344 FPA       0.032033
     39 H23         26.3600    37.3510    30.0060 hc       344 FPA       0.032033
     40 H24         28.0990    37.5470    29.6800 hc       344 FPA       0.032033
     41 H25         27.0440    36.7930    28.4600 hc       344 FPA       0.032033
     42 PA          25.8530    24.1830    29.4080 p5       344 FPA       1.571800
     43 O1A         25.7790    24.9790    30.8020 o        344 FPA      -0.921000
     44 O2A         27.0220    23.2760    29.3740 o        344 FPA      -0.921000
     45 O3A         24.4100    23.4910    29.1950 os       344 FPA      -0.822800
     46 PB          23.0260    24.3190    29.2840 p5       344 FPA       1.467900
     47 O1B         22.0050    23.3720    30.0920 o        344 FPA      -0.958500
     48 O2B         23.2720    25.6160    30.1950 o        344 FPA      -0.958500
     49 O3B         22.5100    24.7180    27.9570 o        344 FPA      -0.958500
@<TRIPOS>BOND
     1     1     2 1   
     2     1    42 1   
     3     2     3 1   
     4     2    17 1   
     5     2    18 1   
     6     3     4 2   
     7     3    19 1   
     8     4     5 1   
     9     4     6 1   
    10     5    20 1   
    11     5    21 1   
    12     5    22 1   
    13     6     7 1   
    14     6    23 1   
    15     6    24 1   
    16     7     8 1   
    17     7    25 1   
    18     7    26 1   
    19     8     9 2   
    20     8    27 1   
    21     9    10 1   
    22     9    11 1   
    23    10    28 1   
    24    10    29 1   
    25    10    30 1   
    26    11    12 1   
    27    11    31 1   
    28    11    32 1   
    29    12    13 1   
    30    12    33 1   
    31    12    34 1   
    32    13    14 2   
    33    13    35 1   
    34    14    15 1   
    35    14    16 1   
    36    15    36 1   
    37    15    37 1   
    38    15    38 1   
    39    16    39 1   
    40    16    40 1   
    41    16    41 1   
    42    42    43 1   
    43    42    44 1   
    44    42    45 1   
    45    45    46 1   
    46    46    47 1   
    47    46    48 1   
    48    46    49 1   
@<TRIPOS>SUBSTRUCTURE
     1 FPA         1 TEMP              0 ****  ****    0 ROOT
