# created with PyMOL 2.5.5
@<TRIPOS>MOLECULE
FPP_B_new
49 48 1                 
SMALL
USER_CHARGES
@<TRIPOS>ATOM
1	  PA	27.754	45.603	6.291	P.3	1	FPB344	0.000	
2	  PB	29.566	44.149	4.761	P.3	1	FPB344	0.000	
3	  C1	28.908	46.627	8.704	C.3	1	FPB344	0.000	
4	  O1	28.040	45.771	7.795	O.3	1	FPB344	0.000	
5	 O1A	29.014	46.568	6.049	O.co2	1	FPB344	0.000	
6	 O1B	29.287	44.876	3.352	O.co2	1	FPB344	0.000	
7	  C2	28.872	46.693	10.088	C.2	1	FPB344	0.000	
8	 O2A	26.504	46.190	5.768	O.co2	1	FPB344	0.000	
9	 O2B	30.670	45.069	5.478	O.co2	1	FPB344	0.000	
10	  C3	29.922	46.431	10.957	C.2	1	FPB344	0.000	
11	 O3A	28.202	44.211	5.625	O.3	1	FPB344	0.000	
12	 O3B	30.012	42.746	4.630	O.co2	1	FPB344	0.000	
13	  C4	31.308	46.042	10.443	C.3	1	FPB344	0.000	
14	  C5	29.631	46.543	12.451	C.3	1	FPB344	0.000	
15	  C6	28.353	45.762	12.757	C.3	1	FPB344	0.000	
16	  C7	28.137	45.799	14.129	C.2	1	FPB344	0.000	
17	  C8	28.232	44.738	15.017	C.2	1	FPB344	0.000	
18	  C9	28.582	43.331	14.520	C.3	1	FPB344	0.000	
19	 C10	27.975	45.022	16.497	C.3	1	FPB344	0.000	
20	 C11	29.294	45.331	17.213	C.3	1	FPB344	0.000	
21	 C12	30.039	46.279	16.526	C.2	1	FPB344	0.000	
22	 C13	31.392	46.561	16.702	C.2	1	FPB344	0.000	
23	 C14	32.068	47.638	15.852	C.3	1	FPB344	0.000	
24	 C15	32.203	45.810	17.759	C.3	1	FPB344	0.000	
25	 H03	27.922	46.980	10.540	 H	1	FPB344	0.000	
26	 H11	27.864	46.765	14.553	 H	1	FPB344	0.000	
27	 H19	29.512	46.863	15.771	 H	1	FPB344	0.000	
28	 H01	29.853	46.097	8.584	 H	1	FPB344	0.000	
29	 H02	28.735	47.650	8.371	 H	1	FPB344	0.000	
30	 H04	32.032	46.123	11.254	 H	1	FPB344	0.000	
31	 H05	31.286	45.015	10.078	 H	1	FPB344	0.000	
32	 H06	31.596	46.710	9.632	 H	1	FPB344	0.000	
33	 H07	29.504	47.589	12.729	 H	1	FPB344	0.000	
34	 H08	30.462	46.127	13.020	 H	1	FPB344	0.000	
35	 H09	28.454	44.730	12.421	 H	1	FPB344	0.000	
36	 H10	27.509	46.217	12.238	 H	1	FPB344	0.000	
37	 H12	29.565	43.048	14.896	 H	1	FPB344	0.000	
38	 H13	27.837	42.622	14.881	 H	1	FPB344	0.000	
39	 H14	28.594	43.323	13.430	 H	1	FPB344	0.000	
40	 H15	27.520	44.143	16.954	 H	1	FPB344	0.000	
41	 H16	27.305	45.877	16.589	 H	1	FPB344	0.000	
42	 H17	29.877	44.412	17.264	 H	1	FPB344	0.000	
43	 H18	29.075	45.708	18.212	 H	1	FPB344	0.000	
44	 H20	33.062	47.299	15.560	 H	1	FPB344	0.000	
45	 H21	31.472	47.824	14.959	 H	1	FPB344	0.000	
46	 H22	32.154	48.558	16.431	 H	1	FPB344	0.000	
47	 H23	33.109	46.371	17.987	 H	1	FPB344	0.000	
48	 H24	31.607	45.700	18.665	 H	1	FPB344	0.000	
49	 H25	32.472	44.824	17.379	 H	1	FPB344	0.000	
@<TRIPOS>BOND
1 1 5 1
2 1 8 2
3 1 11 1
4 2 6 1
5 2 9 1
6 2 12 2
7 3 7 1
8 3 28 1
9 3 29 1
10 1 4 1
11 3 4 1
12 7 10 2
13 7 25 1
14 10 13 1
15 10 14 1
16 2 11 1
17 13 30 1
18 13 31 1
19 13 32 1
20 14 15 1
21 14 33 1
22 14 34 1
23 15 16 1
24 15 35 1
25 15 36 1
26 16 17 2
27 16 26 1
28 17 18 1
29 17 19 1
30 18 37 1
31 18 38 1
32 18 39 1
33 19 20 1
34 19 40 1
35 19 41 1
36 20 21 1
37 20 42 1
38 20 43 1
39 21 22 2
40 21 27 1
41 22 23 1
42 22 24 1
43 23 44 1
44 23 45 1
45 23 46 1
46 24 47 1
47 24 48 1
48 24 49 1
@<TRIPOS>SUBSTRUCTURE
1	FPB344	1	GROUP	1 B	FPB
