@<TRIPOS>MOLECULE
FPB
   49    48     1     0     0
SMALL
bcc


@<TRIPOS>ATOM
      1 O1          28.0400    45.7710     7.7950 os       344 FPB      -0.597200
      2 C1          28.9080    46.6270     8.7040 c3       344 FPB       0.160600
      3 C2          28.8720    46.6930    10.0880 c2       344 FPB      -0.077200
      4 C3          29.9220    46.4310    10.9570 c2       344 FPB      -0.252400
      5 C4          31.3080    46.0420    10.4430 c3       344 FPB      -0.068900
      6 C5          29.6310    46.5430    12.4510 c3       344 FPB      -0.004200
      7 C6          28.3530    45.7620    12.7570 c3       344 FPB      -0.068200
      8 C7          28.1370    45.7990    14.1290 c2       344 FPB      -0.104200
      9 C8          28.2320    44.7380    15.0170 c2       344 FPB      -0.204400
     10 C9          28.5820    43.3310    14.5200 c3       344 FPB      -0.040900
     11 C10         27.9750    45.0220    16.4970 c3       344 FPB      -0.022200
     12 C11         29.2940    45.3310    17.2130 c3       344 FPB      -0.045200
     13 C12         30.0390    46.2790    16.5260 c2       344 FPB      -0.141200
     14 C13         31.3920    46.5610    16.7020 c2       344 FPB      -0.160400
     15 C14         32.0680    47.6380    15.8520 c3       344 FPB      -0.048400
     16 C15         32.2030    45.8100    17.7590 c3       344 FPB      -0.048400
     17 H01         29.8530    46.0970     8.5840 h1       344 FPB       0.079200
     18 H02         28.7350    47.6500     8.3710 h1       344 FPB       0.079200
     19 H03         27.9220    46.9800    10.5400 ha       344 FPB       0.097000
     20 H04         32.0320    46.1230    11.2540 hc       344 FPB       0.046700
     21 H05         31.2860    45.0150    10.0780 hc       344 FPB       0.046700
     22 H06         31.5960    46.7100     9.6320 hc       344 FPB       0.046700
     23 H07         29.5040    47.5890    12.7290 hc       344 FPB       0.017700
     24 H08         30.4620    46.1270    13.0200 hc       344 FPB       0.017700
     25 H09         28.4540    44.7300    12.4210 hc       344 FPB       0.056200
     26 H10         27.5090    46.2170    12.2380 hc       344 FPB       0.056200
     27 H11         27.8640    46.7650    14.5530 ha       344 FPB       0.113000
     28 H12         29.5650    43.0480    14.8960 hc       344 FPB       0.030367
     29 H13         27.8370    42.6220    14.8810 hc       344 FPB       0.030367
     30 H14         28.5940    43.3230    13.4300 hc       344 FPB       0.030367
     31 H15         27.5200    44.1430    16.9540 hc       344 FPB       0.031700
     32 H16         27.3050    45.8770    16.5890 hc       344 FPB       0.031700
     33 H17         29.8770    44.4120    17.2640 hc       344 FPB       0.035200
     34 H18         29.0750    45.7080    18.2120 hc       344 FPB       0.035200
     35 H19         29.5120    46.8630    15.7710 ha       344 FPB       0.151000
     36 H20         33.0620    47.2990    15.5600 hc       344 FPB       0.032033
     37 H21         31.4720    47.8240    14.9590 hc       344 FPB       0.032033
     38 H22         32.1540    48.5580    16.4310 hc       344 FPB       0.032033
     39 H23         33.1090    46.3710    17.9870 hc       344 FPB       0.032033
     40 H24         31.6070    45.7000    18.6650 hc       344 FPB       0.032033
     41 H25         32.4720    44.8240    17.3790 hc       344 FPB       0.032033
     42 PA          27.7540    45.6030     6.2910 p5       344 FPB       1.571800
     43 O1A         29.0140    46.5680     6.0490 o        344 FPB      -0.921000
     44 O2A         26.5040    46.1900     5.7680 o        344 FPB      -0.921000
     45 O3A         28.2020    44.2110     5.6250 os       344 FPB      -0.822800
     46 PB          29.5660    44.1490     4.7610 p5       344 FPB       1.467900
     47 O1B         29.2870    44.8760     3.3520 o        344 FPB      -0.958500
     48 O2B         30.6700    45.0690     5.4780 o        344 FPB      -0.958500
     49 O3B         30.0120    42.7460     4.6300 o        344 FPB      -0.958500
@<TRIPOS>BOND
     1     1     2 1   
     2     1    42 1   
     3     2     3 1   
     4     2    17 1   
     5     2    18 1   
     6     3     4 2   
     7     3    19 1   
     8     4     5 1   
     9     4     6 1   
    10     5    20 1   
    11     5    21 1   
    12     5    22 1   
    13     6     7 1   
    14     6    23 1   
    15     6    24 1   
    16     7     8 1   
    17     7    25 1   
    18     7    26 1   
    19     8     9 2   
    20     8    27 1   
    21     9    10 1   
    22     9    11 1   
    23    10    28 1   
    24    10    29 1   
    25    10    30 1   
    26    11    12 1   
    27    11    31 1   
    28    11    32 1   
    29    12    13 1   
    30    12    33 1   
    31    12    34 1   
    32    13    14 2   
    33    13    35 1   
    34    14    15 1   
    35    14    16 1   
    36    15    36 1   
    37    15    37 1   
    38    15    38 1   
    39    16    39 1   
    40    16    40 1   
    41    16    41 1   
    42    42    43 1   
    43    42    44 1   
    44    42    45 1   
    45    45    46 1   
    46    46    47 1   
    47    46    48 1   
    48    46    49 1   
@<TRIPOS>SUBSTRUCTURE
     1 FPB         1 TEMP              0 ****  ****    0 ROOT
