# created with PyMOL 2.5.5
@<TRIPOS>MOLECULE
IPP_2A_new
23 22 1                 
SMALL
USER_CHARGES
@<TRIPOS>ATOM
1	  PA	19.700	27.674	34.709	P.3	1	IPA343	0.000	
2	  PB	17.168	28.818	34.289	P.3	1	IPA343	0.000	
3	  C1	21.527	25.922	34.018	C.3	1	IPA343	0.000	
4	  O1	20.154	26.175	34.330	O.3	1	IPA343	0.000	
5	 O1A	20.254	27.992	36.187	O.co2	1	IPA343	0.000	
6	 O1B	18.136	29.983	33.744	O.co2	1	IPA343	0.000	
7	  C2	21.984	26.840	32.881	C.3	1	IPA343	0.000	
8	 O2A	20.173	28.659	33.710	O.co2	1	IPA343	0.000	
9	 O2B	16.424	28.192	33.005	O.co2	1	IPA343	0.000	
10	  C3	23.492	27.081	32.966	C.2	1	IPA343	0.000	
11	 O3A	18.097	27.633	34.856	O.3	1	IPA343	0.000	
12	 O3B	16.222	29.322	35.311	O.co2	1	IPA343	0.000	
13	  C4	24.453	25.903	33.152	C.2	1	IPA343	0.000	
14	  C5	23.983	28.379	32.919	C.3	1	IPA343	0.000	
15	 H05	25.525	26.082	33.230	 H	1	IPA343	0.000	
16	 H06	24.064	24.886	33.207	 H	1	IPA343	0.000	
17	 H01	21.637	24.884	33.705	 H	1	IPA343	0.000	
18	 H02	22.139	26.108	34.901	 H	1	IPA343	0.000	
19	 H03	21.467	27.796	32.968	 H	1	IPA343	0.000	
20	 H04	21.747	26.374	31.925	 H	1	IPA343	0.000	
21	 H07	24.947	28.384	32.410	 H	1	IPA343	0.000	
22	 H08	23.283	29.013	32.376	 H	1	IPA343	0.000	
23	 H09	24.106	28.758	33.933	 H	1	IPA343	0.000	
@<TRIPOS>BOND
1 1 5 1
2 1 8 2
3 1 11 1
4 2 6 1
5 2 9 1
6 2 12 2
7 3 4 1
8 3 7 1
9 3 17 1
10 3 18 1
11 1 4 1
12 7 10 1
13 7 19 1
14 7 20 1
15 10 13 2
16 10 14 1
17 2 11 1
18 13 15 1
19 13 16 1
20 14 21 1
21 14 22 1
22 14 23 1
@<TRIPOS>SUBSTRUCTURE
1	IPA343	1	GROUP	1 A	IPA
