# created with PyMOL 2.5.5
@<TRIPOS>MOLECULE
IPP_2B_new
23 22 1                 
SMALL
USER_CHARGES
@<TRIPOS>ATOM
1	  PA	36.301	47.844	5.191	p5	343	IPB	0.000	
2	  PB	38.645	46.318	5.583	p5	343	IPB	0.000	
3	  C1	34.442	48.370	6.936	c3	343	IPB	0.000	
4	  O1	35.745	48.689	6.441	os	343	IPB	0.000	
5	 O1A	35.728	46.357	5.419	o	343	IPB	-1.000	
6	 O1B	37.657	45.406	6.465	o	343	IPB	-1.000	
7	  C2	33.472	48.353	5.755	c3	343	IPB	0.000	
8	 O2A	35.889	48.434	3.899	o	343	IPB	0.000	
9	 O2B	38.746	45.623	4.135	o	343	IPB	-1.000	
10	  C3	32.065	47.963	6.210	c2	343	IPB	0.000	
11	 O3A	37.902	47.731	5.355	os	343	IPB	0.000	
12	 O3B	39.970	46.478	6.224	o	343	IPB	0.000	
13	  C4	31.888	47.016	7.398	c2	343	IPB	0.000	
14	  C5	30.959	48.471	5.541	c3	343	IPB	0.000	
15	 H05	30.887	46.735	7.726	ha	343	IPB	0.000	
16	 H06	32.762	46.623	7.916	ha	343	IPB	0.000	
17	 H01	34.127	49.111	7.670	h1	343	IPB	0.000	
18	 H02	34.458	47.391	7.415	h1	343	IPB	0.000	
19	 H03	33.820	47.617	5.030	hc	343	IPB	0.000	
20	 H04	33.440	49.345	5.304	hc	343	IPB	0.000	
21	 H07	30.160	48.667	6.257	hc	343	IPB	0.000	
22	 H08	31.232	49.399	5.039	hc	343	IPB	0.000	
23	 H09	30.615	47.746	4.803	hc	343	IPB	0.000	
@<TRIPOS>BOND
1 1 5 1
2 1 8 2
3 1 11 1
4 2 6 1
5 2 9 1
6 2 12 2
7 3 7 1
8 3 17 1
9 3 18 1
10 1 4 1
11 3 4 1
12 7 10 1
13 7 19 1
14 7 20 1
15 10 13 2
16 10 14 1
17 2 11 1
18 13 15 1
19 13 16 1
20 14 21 1
21 14 22 1
22 14 23 1
@<TRIPOS>SUBSTRUCTURE
1	IPB	1	GROUP	1 B	IPB
