@<TRIPOS>MOLECULE
IPB
   23    22     1     0     0
SMALL
bcc


@<TRIPOS>ATOM
      1 O1          35.7450    48.6890     6.4410 os       343 IPB      -0.601200
      2 C1          34.4420    48.3700     6.9360 c3       343 IPB       0.174400
      3 C2          33.4720    48.3530     5.7550 c3       343 IPB      -0.062200
      4 C3          32.0650    47.9630     6.2100 c2       343 IPB      -0.170400
      5 C4          31.8880    47.0160     7.3980 c2       343 IPB      -0.221000
      6 C5          30.9590    48.4710     5.5410 c3       343 IPB      -0.033900
      7 H01         34.1270    49.1110     7.6700 h1       343 IPB       0.045700
      8 H02         34.4580    47.3910     7.4150 h1       343 IPB       0.045700
      9 H03         33.8200    47.6170     5.0300 hc       343 IPB       0.023700
     10 H04         33.4400    49.3450     5.3040 hc       343 IPB       0.023700
     11 H05         30.8870    46.7350     7.7260 ha       343 IPB       0.150000
     12 H06         32.7620    46.6230     7.9160 ha       343 IPB       0.150000
     13 H07         30.1600    48.6670     6.2570 hc       343 IPB      -0.002967
     14 H08         31.2320    49.3990     5.0390 hc       343 IPB      -0.002967
     15 H09         30.6150    47.7460     4.8030 hc       343 IPB      -0.002967
     16 PA          36.3010    47.8440     5.1910 p5       343 IPB       1.574800
     17 O1A         35.7280    46.3570     5.4190 o        343 IPB      -0.924500
     18 O2A         35.8890    48.4340     3.8990 o        343 IPB      -0.924500
     19 O3A         37.9020    47.7310     5.3550 os       343 IPB      -0.823800
     20 PB          38.6450    46.3180     5.5830 p5       343 IPB       1.472900
     21 O1B         37.6570    45.4060     6.4650 o        343 IPB      -0.963167
     22 O2B         38.7460    45.6230     4.1350 o        343 IPB      -0.963167
     23 O3B         39.9700    46.4780     6.2240 o        343 IPB      -0.963167
@<TRIPOS>BOND
     1     1     2 1   
     2     1    16 1   
     3     2     3 1   
     4     2     7 1   
     5     2     8 1   
     6     3     4 1   
     7     3     9 1   
     8     3    10 1   
     9     4     5 2   
    10     4     6 1   
    11     5    11 1   
    12     5    12 1   
    13     6    13 1   
    14     6    14 1   
    15     6    15 1   
    16    16    17 1   
    17    16    18 1   
    18    16    19 1   
    19    19    20 1   
    20    20    21 1   
    21    20    22 1   
    22    20    23 1   
@<TRIPOS>SUBSTRUCTURE
     1 IPB         1 TEMP              0 ****  ****    0 ROOT
