# created with PyMOL 2.5.5
@<TRIPOS>MOLECULE
GGPP_A_new
62 61 1                 
SMALL
USER_CHARGES
@<TRIPOS>ATOM
1	  PA	36.127	48.507	5.102	P.3	1	GGA343	0.000	
2	  PB	38.307	46.670	5.397	P.3	1	GGA343	0.000	
3	  C1	33.719	47.743	5.913	C.3	1	GGA343	0.000	
4	  O1	34.822	48.645	6.029	O.3	1	GGA343	0.000	
5	 O1A	35.611	48.434	3.577	O.co2	1	GGA343	0.000	
6	 O1B	38.445	45.206	4.742	O.co2	1	GGA343	0.000	
7	  C2	32.824	48.035	6.935	C.2	1	GGA343	0.000	
8	 O2A	37.049	49.642	5.338	O.co2	1	GGA343	0.000	
9	 O2B	39.048	47.675	4.381	O.co2	1	GGA343	0.000	
10	  C3	31.772	48.941	6.882	C.2	1	GGA343	0.000	
11	 O3A	36.739	47.047	5.410	O.3	1	GGA343	0.000	
12	 O3B	38.868	46.701	6.768	O.co2	1	GGA343	0.000	
13	  C4	31.450	49.701	5.594	C.3	1	GGA343	0.000	
14	  C5	30.912	49.132	8.132	C.3	1	GGA343	0.000	
15	  C6	29.703	48.196	8.156	C.3	1	GGA343	0.000	
16	  C7	29.302	48.069	9.480	C.2	1	GGA343	0.000	
17	  C8	29.522	46.954	10.277	C.2	1	GGA343	0.000	
18	  C9	29.042	46.980	11.724	C.3	1	GGA343	0.000	
19	 C10	30.207	45.701	9.725	C.3	1	GGA343	0.000	
20	 C11	28.272	45.719	12.122	C.3	1	GGA343	0.000	
21	 C12	27.998	45.889	13.473	C.2	1	GGA343	0.000	
22	 C13	28.076	44.972	14.509	C.2	1	GGA343	0.000	
23	 C14	28.498	43.521	14.264	C.3	1	GGA343	0.000	
24	 C15	27.752	45.470	15.917	C.3	1	GGA343	0.000	
25	 C16	29.057	45.631	16.708	C.3	1	GGA343	0.000	
26	 C17	29.949	46.483	16.060	C.2	1	GGA343	0.000	
27	 C18	31.253	46.791	16.438	C.2	1	GGA343	0.000	
28	 C19	31.873	46.125	17.667	C.3	1	GGA343	0.000	
29	 C20	32.094	47.757	15.599	C.3	1	GGA343	0.000	
30	 H03	32.961	47.499	7.874	 H	1	GGA343	0.000	
31	 H11	28.773	48.910	9.928	 H	1	GGA343	0.000	
32	 H19	27.674	46.889	13.760	 H	1	GGA343	0.000	
33	 H27	29.584	46.964	15.153	 H	1	GGA343	0.000	
34	 H01	34.061	46.711	5.989	 H	1	GGA343	0.000	
35	 H02	33.234	47.872	4.946	 H	1	GGA343	0.000	
36	 H04	30.628	50.393	5.777	 H	1	GGA343	0.000	
37	 H05	32.329	50.259	5.271	 H	1	GGA343	0.000	
38	 H06	31.162	48.994	4.816	 H	1	GGA343	0.000	
39	 H07	30.539	50.156	8.125	 H	1	GGA343	0.000	
40	 H08	31.524	48.937	9.012	 H	1	GGA343	0.000	
41	 H09	29.961	47.223	7.737	 H	1	GGA343	0.000	
42	 H10	28.893	48.617	7.559	 H	1	GGA343	0.000	
43	 H12	28.359	47.824	11.825	 H	1	GGA343	0.000	
44	 H13	29.909	47.078	12.377	 H	1	GGA343	0.000	
45	 H14	31.187	45.589	10.189	 H	1	GGA343	0.000	
46	 H15	29.598	44.825	9.948	 H	1	GGA343	0.000	
47	 H16	30.326	45.797	8.646	 H	1	GGA343	0.000	
48	 H17	28.839	44.809	11.926	 H	1	GGA343	0.000	
49	 H18	27.349	45.634	11.549	 H	1	GGA343	0.000	
50	 H20	29.468	43.342	14.727	 H	1	GGA343	0.000	
51	 H21	27.759	42.849	14.699	 H	1	GGA343	0.000	
52	 H22	28.569	43.339	13.192	 H	1	GGA343	0.000	
53	 H23	27.106	44.751	16.420	 H	1	GGA343	0.000	
54	 H24	27.241	46.431	15.856	 H	1	GGA343	0.000	
55	 H25	29.525	44.651	16.795	 H	1	GGA343	0.000	
56	 H26	28.827	46.041	17.692	 H	1	GGA343	0.000	
57	 H28	32.775	46.665	17.956	 H	1	GGA343	0.000	
58	 H29	31.159	46.144	18.490	 H	1	GGA343	0.000	
59	 H30	32.128	45.092	17.431	 H	1	GGA343	0.000	
60	 H31	33.067	47.310	15.398	 H	1	GGA343	0.000	
61	 H32	31.585	47.958	14.656	 H	1	GGA343	0.000	
62	 H33	32.230	48.690	16.146	 H	1	GGA343	0.000	
@<TRIPOS>BOND
1 1 5 1
2 1 8 2
3 1 11 1
4 2 6 1
5 2 9 1
6 2 12 2
7 3 7 1
8 3 34 1
9 3 35 1
10 1 4 1
11 3 4 1
12 7 10 2
13 7 30 1
14 10 13 1
15 10 14 1
16 2 11 1
17 13 36 1
18 13 37 1
19 13 38 1
20 14 15 1
21 14 39 1
22 14 40 1
23 15 16 1
24 15 41 1
25 15 42 1
26 16 17 2
27 16 31 1
28 17 18 1
29 17 19 1
30 18 20 1
31 18 43 1
32 18 44 1
33 19 45 1
34 19 46 1
35 19 47 1
36 20 21 1
37 20 48 1
38 20 49 1
39 21 22 2
40 21 32 1
41 22 23 1
42 22 24 1
43 23 50 1
44 23 51 1
45 23 52 1
46 24 25 1
47 24 53 1
48 24 54 1
49 25 26 1
50 25 55 1
51 25 56 1
52 26 27 2
53 26 33 1
54 27 28 1
55 27 29 1
56 28 57 1
57 28 58 1
58 28 59 1
59 29 60 1
60 29 61 1
61 29 62 1
@<TRIPOS>SUBSTRUCTURE
1	GGA343	1	GROUP	1 A	GGA
