@<TRIPOS>MOLECULE
GGA
   62    61     1     0     0
SMALL
bcc


@<TRIPOS>ATOM
      1 O1          34.8220    48.6450     6.0290 os       343 GGA      -0.568200
      2 C1          33.7190    47.7430     5.9130 c3       343 GGA       0.225600
      3 C2          32.8240    48.0350     6.9350 c2       343 GGA      -0.084200
      4 C3          31.7720    48.9410     6.8820 c2       343 GGA      -0.257400
      5 C4          31.4500    49.7010     5.5940 c3       343 GGA      -0.021900
      6 C5          30.9120    49.1320     8.1320 c3       343 GGA       0.002800
      7 C6          29.7030    48.1960     8.1560 c3       343 GGA      -0.014200
      8 C7          29.3020    48.0690     9.4800 c2       343 GGA      -0.267200
      9 C8          29.5220    46.9540    10.2770 c2       343 GGA      -0.018400
     10 C9          29.0420    46.9800    11.7240 c3       343 GGA      -0.085200
     11 C10         30.2070    45.7010     9.7250 c3       343 GGA      -0.102900
     12 C11         28.2720    45.7190    12.1220 c3       343 GGA      -0.024200
     13 C12         27.9980    45.8890    13.4730 c2       343 GGA      -0.150200
     14 C13         28.0760    44.9720    14.5090 c2       343 GGA      -0.194400
     15 C14         28.4980    43.5210    14.2640 c3       343 GGA      -0.032900
     16 C15         27.7520    45.4700    15.9170 c3       343 GGA      -0.036200
     17 C16         29.0570    45.6310    16.7080 c3       343 GGA      -0.039200
     18 C17         29.9490    46.4830    16.0600 c2       343 GGA      -0.140200
     19 C18         31.2530    46.7910    16.4380 c2       343 GGA      -0.205400
     20 C19         31.8730    46.1250    17.6670 c3       343 GGA      -0.045900
     21 C20         32.0940    47.7570    15.5990 c3       343 GGA      -0.045900
     22 H01         34.0610    46.7110     5.9890 h1       343 GGA       0.023700
     23 H02         33.2340    47.8720     4.9460 h1       343 GGA       0.023700
     24 H03         32.9610    47.4990     7.8740 ha       343 GGA       0.148000
     25 H04         30.6280    50.3930     5.7770 hc       343 GGA       0.010033
     26 H05         32.3290    50.2590     5.2710 hc       343 GGA       0.010033
     27 H06         31.1620    48.9940     4.8160 hc       343 GGA       0.010033
     28 H07         30.5390    50.1560     8.1250 hc       343 GGA      -0.003800
     29 H08         31.5240    48.9370     9.0120 hc       343 GGA      -0.003800
     30 H09         29.9610    47.2230     7.7370 hc       343 GGA       0.016200
     31 H10         28.8930    48.6170     7.5590 hc       343 GGA       0.016200
     32 H11         28.7730    48.9100     9.9280 ha       343 GGA       0.090000
     33 H12         28.3590    47.8240    11.8250 hc       343 GGA       0.087200
     34 H13         29.9090    47.0780    12.3770 hc       343 GGA       0.087200
     35 H14         31.1870    45.5890    10.1890 hc       343 GGA       0.067367
     36 H15         29.5980    44.8250     9.9480 hc       343 GGA       0.067367
     37 H16         30.3260    45.7970     8.6460 hc       343 GGA       0.067367
     38 H17         28.8390    44.8090    11.9260 hc       343 GGA       0.007200
     39 H18         27.3490    45.6340    11.5490 hc       343 GGA       0.007200
     40 H19         27.6740    46.8890    13.7600 ha       343 GGA       0.255000
     41 H20         29.4680    43.3420    14.7270 hc       343 GGA       0.007700
     42 H21         27.7590    42.8490    14.6990 hc       343 GGA       0.007700
     43 H22         28.5690    43.3390    13.1920 hc       343 GGA       0.007700
     44 H23         27.1060    44.7510    16.4200 hc       343 GGA       0.061200
     45 H24         27.2410    46.4310    15.8560 hc       343 GGA       0.061200
     46 H25         29.5250    44.6510    16.7950 hc       343 GGA       0.016200
     47 H26         28.8270    46.0410    17.6920 hc       343 GGA       0.016200
     48 H27         29.5840    46.9640    15.1530 ha       343 GGA       0.278000
     49 H28         32.7750    46.6650    17.9560 hc       343 GGA       0.021367
     50 H29         31.1590    46.1440    18.4900 hc       343 GGA       0.021367
     51 H30         32.1280    45.0920    17.4310 hc       343 GGA       0.021367
     52 H31         33.0670    47.3100    15.3980 hc       343 GGA       0.021367
     53 H32         31.5850    47.9580    14.6560 hc       343 GGA       0.021367
     54 H33         32.2300    48.6900    16.1460 hc       343 GGA       0.021367
     55 PA          36.1270    48.5070     5.1020 p5       343 GGA       1.595800
     56 O1A         35.6110    48.4340     3.5770 o        343 GGA      -0.934000
     57 O2A         37.0490    49.6420     5.3380 o        343 GGA      -0.934000
     58 O3A         36.7390    47.0470     5.4100 os       343 GGA      -0.801800
     59 PB          38.3070    46.6700     5.3970 p5       343 GGA       1.472900
     60 O1B         38.4450    45.2060     4.7420 o        343 GGA      -0.954500
     61 O2B         39.0480    47.6750     4.3810 o        343 GGA      -0.954500
     62 O3B         38.8680    46.7010     6.7680 o        343 GGA      -0.954500
@<TRIPOS>BOND
     1     1     2 1   
     2     1    55 1   
     3     2     3 1   
     4     2    22 1   
     5     2    23 1   
     6     3     4 2   
     7     3    24 1   
     8     4     5 1   
     9     4     6 1   
    10     5    25 1   
    11     5    26 1   
    12     5    27 1   
    13     6     7 1   
    14     6    28 1   
    15     6    29 1   
    16     7     8 1   
    17     7    30 1   
    18     7    31 1   
    19     8     9 2   
    20     8    32 1   
    21     9    10 1   
    22     9    11 1   
    23    10    12 1   
    24    10    33 1   
    25    10    34 1   
    26    11    35 1   
    27    11    36 1   
    28    11    37 1   
    29    12    13 1   
    30    12    38 1   
    31    12    39 1   
    32    13    14 2   
    33    13    40 1   
    34    14    15 1   
    35    14    16 1   
    36    15    41 1   
    37    15    42 1   
    38    15    43 1   
    39    16    17 1   
    40    16    44 1   
    41    16    45 1   
    42    17    18 1   
    43    17    46 1   
    44    17    47 1   
    45    18    19 2   
    46    18    48 1   
    47    19    20 1   
    48    19    21 1   
    49    20    49 1   
    50    20    50 1   
    51    20    51 1   
    52    21    52 1   
    53    21    53 1   
    54    21    54 1   
    55    55    56 1   
    56    55    57 1   
    57    55    58 1   
    58    58    59 1   
    59    59    60 1   
    60    59    61 1   
    61    59    62 1   
@<TRIPOS>SUBSTRUCTURE
     1 GGA         1 TEMP              0 ****  ****    0 ROOT
