# created with PyMOL 2.5.5
@<TRIPOS>MOLECULE
GGPP_B_new
62 61 1                 
SMALL
USER_CHARGES
@<TRIPOS>ATOM
1	  PA	19.547	26.998	35.051	P.3	1	GGB343	0.000	
2	  PB	17.210	28.400	34.186	P.3	1	GGB343	0.000	
3	  C1	21.444	26.668	33.195	C.3	1	GGB343	0.000	
4	  O1	21.045	27.145	34.483	O.3	1	GGB343	0.000	
5	 O1A	19.189	25.432	34.940	O.co2	1	GGB343	0.000	
6	 O1B	17.395	29.988	34.053	O.co2	1	GGB343	0.000	
7	  C2	22.621	27.344	32.885	C.2	1	GGB343	0.000	
8	 O2A	19.468	27.552	36.423	O.co2	1	GGB343	0.000	
9	 O2B	16.299	27.909	32.954	O.co2	1	GGB343	0.000	
10	  C3	23.911	26.964	33.238	C.2	1	GGB343	0.000	
11	 O3A	18.656	27.738	33.929	O.3	1	GGB343	0.000	
12	 O3B	16.635	28.002	35.492	O.co2	1	GGB343	0.000	
13	  C4	24.166	25.649	33.976	C.3	1	GGB343	0.000	
14	  C5	25.081	27.863	32.840	C.3	1	GGB343	0.000	
15	  C6	25.765	27.393	31.555	C.3	1	GGB343	0.000	
16	  C7	26.634	28.394	31.134	C.2	1	GGB343	0.000	
17	  C8	26.440	29.297	30.095	C.2	1	GGB343	0.000	
18	  C9	27.528	30.330	29.800	C.3	1	GGB343	0.000	
19	 C10	25.162	29.292	29.254	C.3	1	GGB343	0.000	
20	 C11	28.001	30.330	28.343	C.3	1	GGB343	0.000	
21	 C12	28.868	31.408	28.205	C.2	1	GGB343	0.000	
22	 C13	28.819	32.475	27.314	C.2	1	GGB343	0.000	
23	 C14	27.760	32.584	26.215	C.3	1	GGB343	0.000	
24	 C15	29.906	33.546	27.406	C.3	1	GGB343	0.000	
25	 C16	29.356	34.802	28.089	C.3	1	GGB343	0.000	
26	 C17	28.733	34.501	29.298	C.2	1	GGB343	0.000	
27	 C18	27.872	35.318	30.022	C.2	1	GGB343	0.000	
28	 C19	27.491	36.695	29.478	C.3	1	GGB343	0.000	
29	 C20	27.264	34.817	31.337	C.3	1	GGB343	0.000	
30	 H03	22.521	28.263	32.308	 H	1	GGB343	0.000	
31	 H11	27.573	28.480	31.680	 H	1	GGB343	0.000	
32	 H19	29.710	31.419	28.897	 H	1	GGB343	0.000	
33	 H27	28.943	33.519	29.722	 H	1	GGB343	0.000	
34	 H01	20.672	26.845	32.446	 H	1	GGB343	0.000	
35	 H02	21.620	25.593	33.226	 H	1	GGB343	0.000	
36	 H04	25.024	25.765	34.638	 H	1	GGB343	0.000	
37	 H05	23.287	25.386	34.565	 H	1	GGB343	0.000	
38	 H06	24.370	24.859	33.253	 H	1	GGB343	0.000	
39	 H07	25.818	27.825	33.642	 H	1	GGB343	0.000	
40	 H08	24.709	28.877	32.689	 H	1	GGB343	0.000	
41	 H09	25.021	27.192	30.784	 H	1	GGB343	0.000	
42	 H10	26.322	26.476	31.747	 H	1	GGB343	0.000	
43	 H12	28.390	30.067	30.414	 H	1	GGB343	0.000	
44	 H13	27.136	31.320	30.035	 H	1	GGB343	0.000	
45	 H14	24.403	29.902	29.744	 H	1	GGB343	0.000	
46	 H15	25.375	29.702	28.267	 H	1	GGB343	0.000	
47	 H16	24.797	28.270	29.153	 H	1	GGB343	0.000	
48	 H17	27.158	30.414	27.657	 H	1	GGB343	0.000	
49	 H18	28.519	29.398	28.115	 H	1	GGB343	0.000	
50	 H20	26.906	33.150	26.589	 H	1	GGB343	0.000	
51	 H21	28.184	33.095	25.351	 H	1	GGB343	0.000	
52	 H22	27.434	31.586	25.923	 H	1	GGB343	0.000	
53	 H23	30.236	33.805	26.400	 H	1	GGB343	0.000	
54	 H24	30.745	33.159	27.984	 H	1	GGB343	0.000	
55	 H25	28.615	35.251	27.428	 H	1	GGB343	0.000	
56	 H26	30.179	35.492	28.277	 H	1	GGB343	0.000	
57	 H28	26.581	37.040	29.968	 H	1	GGB343	0.000	
58	 H29	28.298	37.400	29.675	 H	1	GGB343	0.000	
59	 H30	27.321	36.627	28.403	 H	1	GGB343	0.000	
60	 H31	26.250	34.460	31.155	 H	1	GGB343	0.000	
61	 H32	27.870	34.001	31.731	 H	1	GGB343	0.000	
62	 H33	27.237	35.633	32.060	 H	1	GGB343	0.000	
@<TRIPOS>BOND
1 1 5 1
2 1 8 2
3 1 11 1
4 2 6 1
5 2 9 1
6 2 12 2
7 3 7 1
8 3 34 1
9 3 35 1
10 1 4 1
11 3 4 1
12 7 10 2
13 7 30 1
14 10 13 1
15 10 14 1
16 2 11 1
17 13 36 1
18 13 37 1
19 13 38 1
20 14 15 1
21 14 39 1
22 14 40 1
23 15 16 1
24 15 41 1
25 15 42 1
26 16 17 2
27 16 31 1
28 17 18 1
29 17 19 1
30 18 20 1
31 18 43 1
32 18 44 1
33 19 45 1
34 19 46 1
35 19 47 1
36 20 21 1
37 20 48 1
38 20 49 1
39 21 22 2
40 21 32 1
41 22 23 1
42 22 24 1
43 23 50 1
44 23 51 1
45 23 52 1
46 24 25 1
47 24 53 1
48 24 54 1
49 25 26 1
50 25 55 1
51 25 56 1
52 26 27 2
53 26 33 1
54 27 28 1
55 27 29 1
56 28 57 1
57 28 58 1
58 28 59 1
59 29 60 1
60 29 61 1
61 29 62 1
@<TRIPOS>SUBSTRUCTURE
1	GGB343	1	GROUP	1 B	GGB
