@<TRIPOS>MOLECULE
GGB
   62    61     1     0     0
SMALL
bcc


@<TRIPOS>ATOM
      1 O1          21.0450    27.1450    34.4830 os       343 GGB      -0.601200
      2 C1          21.4440    26.6680    33.1950 c3       343 GGB       0.192600
      3 C2          22.6210    27.3440    32.8850 c2       343 GGB      -0.120200
      4 C3          23.9110    26.9640    33.2380 c2       343 GGB      -0.201400
      5 C4          24.1660    25.6490    33.9760 c3       343 GGB      -0.067900
      6 C5          25.0810    27.8630    32.8400 c3       343 GGB       0.007800
      7 C6          25.7650    27.3930    31.5550 c3       343 GGB      -0.127200
      8 C7          26.6340    28.3940    31.1340 c2       343 GGB      -0.110200
      9 C8          26.4400    29.2970    30.0950 c2       343 GGB      -0.183400
     10 C9          27.5280    30.3300    29.8000 c3       343 GGB      -0.019200
     11 C10         25.1620    29.2920    29.2540 c3       343 GGB      -0.094900
     12 C11         28.0010    30.3300    28.3430 c3       343 GGB      -0.063200
     13 C12         28.8680    31.4080    28.2050 c2       343 GGB      -0.118200
     14 C13         28.8190    32.4750    27.3140 c2       343 GGB      -0.188400
     15 C14         27.7600    32.5840    26.2150 c3       343 GGB      -0.044900
     16 C15         29.9060    33.5460    27.4060 c3       343 GGB      -0.025200
     17 C16         29.3560    34.8020    28.0890 c3       343 GGB      -0.044200
     18 C17         28.7330    34.5010    29.2980 c2       343 GGB      -0.148200
     19 C18         27.8720    35.3180    30.0220 c2       343 GGB      -0.153400
     20 C19         27.4910    36.6950    29.4780 c3       343 GGB      -0.050400
     21 C20         27.2640    34.8170    31.3370 c3       343 GGB      -0.050400
     22 H01         20.6720    26.8450    32.4460 h1       343 GGB       0.048700
     23 H02         21.6200    25.5930    33.2260 h1       343 GGB       0.048700
     24 H03         22.5210    28.2630    32.3080 ha       343 GGB       0.109000
     25 H04         25.0240    25.7650    34.6380 hc       343 GGB       0.039700
     26 H05         23.2870    25.3860    34.5650 hc       343 GGB       0.039700
     27 H06         24.3700    24.8590    33.2530 hc       343 GGB       0.039700
     28 H07         25.8180    27.8250    33.6420 hc       343 GGB      -0.014800
     29 H08         24.7090    28.8770    32.6890 hc       343 GGB      -0.014800
     30 H09         25.0210    27.1920    30.7840 hc       343 GGB       0.137200
     31 H10         26.3220    26.4760    31.7470 hc       343 GGB       0.137200
     32 H11         27.5730    28.4800    31.6800 ha       343 GGB       0.064000
     33 H12         28.3900    30.0670    30.4140 hc       343 GGB       0.019700
     34 H13         27.1360    31.3200    30.0350 hc       343 GGB       0.019700
     35 H14         24.4030    29.9020    29.7440 hc       343 GGB       0.067033
     36 H15         25.3750    29.7020    28.2670 hc       343 GGB       0.067033
     37 H16         24.7970    28.2700    29.1530 hc       343 GGB       0.067033
     38 H17         27.1580    30.4140    27.6570 hc       343 GGB       0.060200
     39 H18         28.5190    29.3980    28.1150 hc       343 GGB       0.060200
     40 H19         29.7100    31.4190    28.8970 ha       343 GGB       0.113000
     41 H20         26.9060    33.1500    26.5890 hc       343 GGB       0.033367
     42 H21         28.1840    33.0950    25.3510 hc       343 GGB       0.033367
     43 H22         27.4340    31.5860    25.9230 hc       343 GGB       0.033367
     44 H23         30.2360    33.8050    26.4000 hc       343 GGB       0.032200
     45 H24         30.7450    33.1590    27.9840 hc       343 GGB       0.032200
     46 H25         28.6150    35.2510    27.4280 hc       343 GGB       0.037700
     47 H26         30.1790    35.4920    28.2770 hc       343 GGB       0.037700
     48 H27         28.9430    33.5190    29.7220 ha       343 GGB       0.147000
     49 H28         26.5810    37.0400    29.9680 hc       343 GGB       0.033700
     50 H29         28.2980    37.4000    29.6750 hc       343 GGB       0.033700
     51 H30         27.3210    36.6270    28.4030 hc       343 GGB       0.033700
     52 H31         26.2500    34.4600    31.1550 hc       343 GGB       0.033700
     53 H32         27.8700    34.0010    31.7310 hc       343 GGB       0.033700
     54 H33         27.2370    35.6330    32.0600 hc       343 GGB       0.033700
     55 PA          19.5470    26.9980    35.0510 p5       343 GGB       1.577800
     56 O1A         19.1890    25.4320    34.9400 o        343 GGB      -0.919500
     57 O2A         19.4680    27.5520    36.4230 o        343 GGB      -0.919500
     58 O3A         18.6560    27.7380    33.9290 os       343 GGB      -0.824800
     59 PB          17.2100    28.4000    34.1860 p5       343 GGB       1.483900
     60 O1B         17.3950    29.9880    34.0530 o        343 GGB      -0.961500
     61 O2B         16.2990    27.9090    32.9540 o        343 GGB      -0.961500
     62 O3B         16.6350    28.0020    35.4920 o        343 GGB      -0.961500
@<TRIPOS>BOND
     1     1     2 1   
     2     1    55 1   
     3     2     3 1   
     4     2    22 1   
     5     2    23 1   
     6     3     4 2   
     7     3    24 1   
     8     4     5 1   
     9     4     6 1   
    10     5    25 1   
    11     5    26 1   
    12     5    27 1   
    13     6     7 1   
    14     6    28 1   
    15     6    29 1   
    16     7     8 1   
    17     7    30 1   
    18     7    31 1   
    19     8     9 2   
    20     8    32 1   
    21     9    10 1   
    22     9    11 1   
    23    10    12 1   
    24    10    33 1   
    25    10    34 1   
    26    11    35 1   
    27    11    36 1   
    28    11    37 1   
    29    12    13 1   
    30    12    38 1   
    31    12    39 1   
    32    13    14 2   
    33    13    40 1   
    34    14    15 1   
    35    14    16 1   
    36    15    41 1   
    37    15    42 1   
    38    15    43 1   
    39    16    17 1   
    40    16    44 1   
    41    16    45 1   
    42    17    18 1   
    43    17    46 1   
    44    17    47 1   
    45    18    19 2   
    46    18    48 1   
    47    19    20 1   
    48    19    21 1   
    49    20    49 1   
    50    20    50 1   
    51    20    51 1   
    52    21    52 1   
    53    21    53 1   
    54    21    54 1   
    55    55    56 1   
    56    55    57 1   
    57    55    58 1   
    58    58    59 1   
    59    59    60 1   
    60    59    61 1   
    61    59    62 1   
@<TRIPOS>SUBSTRUCTURE
     1 GGB         1 TEMP              0 ****  ****    0 ROOT
