@<TRIPOS>MOLECULE
FGP
   65    64     1     0     0
SMALL
bcc


@<TRIPOS>ATOM
      1 C01         12.1220    24.5770    -8.9270 c3       911 FGP       0.217600
      2 F01         14.1900    24.0830   -10.0770 f        911 FGP      -0.179500
      3 O01         11.4360    24.3880   -10.1350 os       911 FGP      -0.579200
      4 C02         13.4420    23.8830    -9.0120 c2       911 FGP       0.052300
      5 P02         10.1690    23.4010   -10.1180 p5       911 FGP       1.814500
      6 C03         13.8610    23.0690    -8.0310 c2       911 FGP      -0.130400
      7 O03         10.4280    22.3910    -8.8850 os       911 FGP      -0.814800
      8 C04         15.1880    22.3950    -8.1650 c3       911 FGP      -0.043200
      9 P04          9.4520    21.1810    -8.4600 p5       911 FGP       1.812500
     10 C05         15.5060    21.5470    -6.9360 c3       911 FGP      -0.041200
     11 O05         10.0470    20.4890    -7.2950 oh       911 FGP      -0.788900
     12 C06         16.3390    22.2830    -5.9180 c2       911 FGP      -0.181200
     13 O06          8.9140    24.1560    -9.9170 oh       911 FGP      -0.810400
     14 C07         17.5230    22.8380    -6.2150 c2       911 FGP      -0.106400
     15 O07         10.1360    22.7110   -11.4320 o        911 FGP      -0.817300
     16 C08         18.3110    23.5430    -5.1600 c3       911 FGP      -0.043200
     17 O08          8.1370    21.7010    -8.0470 oh       911 FGP      -0.788900
     18 C09         18.9270    24.8060    -5.7440 c3       911 FGP      -0.041200
     19 O09          9.2990    20.2660    -9.6230 o        911 FGP      -0.801300
     20 C10         17.8750    25.8700    -5.7500 c2       911 FGP      -0.173200
     21 C11         18.1590    27.1270    -6.1100 c2       911 FGP      -0.121400
     22 C12         17.0750    28.1640    -6.1080 c3       911 FGP      -0.038200
     23 C13         17.1610    29.0310    -7.3630 c3       911 FGP      -0.041200
     24 C14         17.1590    28.1620    -8.5830 c2       911 FGP      -0.177200
     25 C15         16.0130    27.6540    -9.0540 c2       911 FGP      -0.127400
     26 C16         13.0150    22.8230    -6.8190 c3       911 FGP      -0.064900
     27 C17         18.0830    22.7610    -7.6000 c3       911 FGP      -0.060900
     28 C18         19.5510    27.4930    -6.5190 c3       911 FGP      -0.058900
     29 C19         16.0450    26.7840   -10.2740 c3       911 FGP      -0.058900
     30 C20         14.7090    27.9530    -8.3750 c3       911 FGP      -0.058900
     31 H           11.5510    24.1670    -8.1210 h1       911 FGP       0.073700
     32 H1          12.2700    25.6220    -8.7520 h1       911 FGP       0.073700
     33 H2          15.9470    23.1400    -8.2800 hc       911 FGP       0.057700
     34 H3          15.1560    21.7520    -9.0200 hc       911 FGP       0.057700
     35 H4          16.0420    20.6760    -7.2510 hc       911 FGP       0.051700
     36 H5          14.5770    21.2940    -6.4700 hc       911 FGP       0.051700
     37 H6          10.9170    20.1350    -7.5390 ho       911 FGP       0.495000
     38 H7          15.9830    22.3630    -4.9530 ha       911 FGP       0.118000
     39 H8           8.7750    24.7570   -10.6660 ho       911 FGP       0.493000
     40 H9          19.0880    22.8990    -4.8050 hc       911 FGP       0.046700
     41 H10         17.6650    23.8040    -4.3480 hc       911 FGP       0.046700
     42 H11          7.7220    22.1610    -8.7930 ho       911 FGP       0.495000
     43 H12         19.7560    25.1180    -5.1430 hc       911 FGP       0.050200
     44 H13         19.2790    24.6240    -6.7380 hc       911 FGP       0.050200
     45 H14         16.9110    25.6300    -5.4710 ha       911 FGP       0.121000
     46 H15         16.1220    27.6770    -6.0810 hc       911 FGP       0.044700
     47 H16         17.1950    28.7880    -5.2470 hc       911 FGP       0.044700
     48 H17         16.3200    29.6920    -7.3960 hc       911 FGP       0.048700
     49 H18         18.0670    29.6000    -7.3370 hc       911 FGP       0.048700
     50 H19         18.0480    27.9530    -9.0640 ha       911 FGP       0.125000
     51 H20         12.1080    23.3850    -6.8970 hc       911 FGP       0.052700
     52 H21         13.5490    23.1270    -5.9430 hc       911 FGP       0.052700
     53 H22         12.7840    21.7810    -6.7510 hc       911 FGP       0.052700
     54 H23         17.4030    22.2280    -8.2310 hc       911 FGP       0.043033
     55 H24         19.0230    22.2500    -7.5770 hc       911 FGP       0.043033
     56 H25         18.2240    23.7500    -7.9830 hc       911 FGP       0.043033
     57 H26         19.5870    28.5320    -6.7710 hc       911 FGP       0.041700
     58 H27         19.8380    26.9100    -7.3690 hc       911 FGP       0.041700
     59 H28         20.2230    27.2980    -5.7100 hc       911 FGP       0.041700
     60 H29         17.0540    26.6850   -10.6150 hc       911 FGP       0.040867
     61 H30         15.4500    27.2280   -11.0450 hc       911 FGP       0.040867
     62 H31         15.6530    25.8180   -10.0330 hc       911 FGP       0.040867
     63 H32         13.9150    27.4610    -8.8960 hc       911 FGP       0.040867
     64 H33         14.5380    29.0090    -8.3800 hc       911 FGP       0.040867
     65 H34         14.7440    27.6020    -7.3650 hc       911 FGP       0.040867
@<TRIPOS>BOND
     1     1     3 1   
     2     1     4 1   
     3     1    31 1   
     4     1    32 1   
     5     2     4 1   
     6     3     5 1   
     7     4     6 2   
     8     5     7 1   
     9     5    13 1   
    10     5    15 2   
    11     6     8 1   
    12     6    26 1   
    13     7     9 1   
    14     8    10 1   
    15     8    33 1   
    16     8    34 1   
    17     9    11 1   
    18     9    17 1   
    19     9    19 2   
    20    10    12 1   
    21    10    35 1   
    22    10    36 1   
    23    11    37 1   
    24    12    14 2   
    25    12    38 1   
    26    13    39 1   
    27    14    16 1   
    28    14    27 1   
    29    16    18 1   
    30    16    40 1   
    31    16    41 1   
    32    17    42 1   
    33    18    20 1   
    34    18    43 1   
    35    18    44 1   
    36    20    21 2   
    37    20    45 1   
    38    21    22 1   
    39    21    28 1   
    40    22    23 1   
    41    22    46 1   
    42    22    47 1   
    43    23    24 1   
    44    23    48 1   
    45    23    49 1   
    46    24    25 2   
    47    24    50 1   
    48    25    29 1   
    49    25    30 1   
    50    26    51 1   
    51    26    52 1   
    52    26    53 1   
    53    27    54 1   
    54    27    55 1   
    55    27    56 1   
    56    28    57 1   
    57    28    58 1   
    58    28    59 1   
    59    29    60 1   
    60    29    61 1   
    61    29    62 1   
    62    30    63 1   
    63    30    64 1   
    64    30    65 1   
@<TRIPOS>SUBSTRUCTURE
     1 FGP         1 TEMP              0 ****  ****    0 ROOT
