@<TRIPOS>MOLECULE
GGP
   62    61     1     0     0
SMALL
bcc


@<TRIPOS>ATOM
      1 P02         45.9410    50.5760    50.9340 p5       783 GGP       1.585800
      2 P04         43.5390    52.1170    51.0470 p5       783 GGP       1.491900
      3 C01         45.2220    48.1920    50.2800 c3       783 GGP       0.192600
      4 O01         46.2760    49.1220    50.3460 os       783 GGP      -0.600200
      5 C02         44.8570    48.0050    48.8420 c2       783 GGP      -0.118200
      6 C03         43.5770    48.0620    48.4480 c2       783 GGP      -0.199400
      7 O03         44.3610    50.7900    50.6650 os       783 GGP      -0.825800
      8 C04         43.2560    47.8680    46.9990 c3       783 GGP       0.000800
      9 C05         41.7500    47.9290    46.7510 c3       783 GGP      -0.042200
     10 O05         42.1270    51.9220    50.6200 o        783 GGP      -0.953167
     11 C06         41.1040    46.5700    46.7490 c2       783 GGP      -0.130200
     12 O06         46.2650    50.6430    52.3610 o        783 GGP      -0.912000
     13 C07         41.5040    45.5760    45.9400 c2       783 GGP      -0.188400
     14 O07         46.8020    51.5290    50.2210 o        783 GGP      -0.912000
     15 C08         40.8170    44.2520    45.9680 c3       783 GGP      -0.062200
     16 O08         43.5260    52.3260    52.4980 o        783 GGP      -0.953167
     17 C09         41.8460    43.1360    45.8650 c3       783 GGP      -0.029200
     18 O09         44.1640    53.2750    50.3690 o        783 GGP      -0.953167
     19 C10         42.4420    42.9290    47.2190 c2       783 GGP      -0.115200
     20 C11         43.2950    41.9320    47.4670 c2       783 GGP      -0.215400
     21 C12         43.8760    41.7580    48.8330 c3       783 GGP      -0.033200
     22 C13         45.3750    41.4640    48.7550 c3       783 GGP       0.002800
     23 C14         46.0580    42.5220    47.9550 c2       783 GGP      -0.286200
     24 C15         46.3570    43.7080    48.4820 c2       783 GGP      -0.014400
     25 C16         42.4740    48.3300    49.4290 c3       783 GGP      -0.069900
     26 C17         42.6320    45.7720    44.9900 c3       783 GGP      -0.028900
     27 C18         43.6940    41.0060    46.3520 c3       783 GGP      -0.021900
     28 C19         47.0260    44.7490    47.6360 c3       783 GGP      -0.118900
     29 C20         46.0150    43.9910    49.9250 c3       783 GGP      -0.118900
     30 H           44.3780    48.5620    50.8230 h1       783 GGP       0.051700
     31 H1          45.5230    47.2600    50.7100 h1       783 GGP       0.051700
     32 H2          45.5980    47.8300    48.1460 ha       783 GGP       0.106000
     33 H3          43.6220    46.9130    46.6860 hc       783 GGP      -0.000800
     34 H4          43.7220    48.6540    46.4420 hc       783 GGP      -0.000800
     35 H5          41.5780    48.3910    45.8010 hc       783 GGP       0.013200
     36 H6          41.3140    48.4920    47.5500 hc       783 GGP       0.013200
     37 H7          40.3200    46.3950    47.3970 ha       783 GGP       0.254000
     38 H8          40.1380    44.1860    45.1440 hc       783 GGP       0.080700
     39 H9          40.2780    44.1530    46.8870 hc       783 GGP       0.080700
     40 H10         42.6110    43.4110    45.1700 hc       783 GGP       0.009700
     41 H11         41.3830    42.2350    45.5220 hc       783 GGP       0.009700
     42 H12         42.1880    43.5740    47.9830 ha       783 GGP       0.257000
     43 H13         43.3840    40.9430    49.3220 hc       783 GGP       0.055200
     44 H14         43.7340    42.6650    49.3830 hc       783 GGP       0.055200
     45 H15         45.5260    40.5130    48.2890 hc       783 GGP      -0.007300
     46 H16         45.7840    41.4500    49.7440 hc       783 GGP      -0.007300
     47 H17         46.3040    42.3310    46.9710 ha       783 GGP       0.085000
     48 H18         42.8880    48.4410    50.4090 hc       783 GGP       0.044033
     49 H19         41.7850    47.5110    49.4230 hc       783 GGP       0.044033
     50 H20         41.9630    49.2290    49.1540 hc       783 GGP       0.044033
     51 H21         43.0150    46.7660    45.0910 hc       783 GGP       0.002033
     52 H22         42.2850    45.6240    43.9890 hc       783 GGP       0.002033
     53 H23         43.4070    45.0670    45.2070 hc       783 GGP       0.002033
     54 H24         43.1790    41.2840    45.4560 hc       783 GGP       0.000033
     55 H25         43.4370    40.0010    46.6140 hc       783 GGP       0.000033
     56 H26         44.7500    41.0740    46.1920 hc       783 GGP       0.000033
     57 H27         47.1840    44.3610    46.6510 hc       783 GGP       0.064367
     58 H28         47.9680    45.0110    48.0710 hc       783 GGP       0.064367
     59 H29         46.4040    45.6180    47.5820 hc       783 GGP       0.064367
     60 H30         45.5460    43.1310    50.3560 hc       783 GGP       0.064367
     61 H31         45.3460    44.8250    49.9760 hc       783 GGP       0.064367
     62 H32         46.9100    44.2180    50.4660 hc       783 GGP       0.064367
@<TRIPOS>BOND
     1     1     4 1   
     2     1     7 1   
     3     1    12 1   
     4     1    14 1   
     5     2     7 1   
     6     2    10 1   
     7     2    16 1   
     8     2    18 1   
     9     3     4 1   
    10     3     5 1   
    11     3    30 1   
    12     3    31 1   
    13     5     6 2   
    14     5    32 1   
    15     6     8 1   
    16     6    25 1   
    17     8     9 1   
    18     8    33 1   
    19     8    34 1   
    20     9    11 1   
    21     9    35 1   
    22     9    36 1   
    23    11    13 2   
    24    11    37 1   
    25    13    15 1   
    26    13    26 1   
    27    15    17 1   
    28    15    38 1   
    29    15    39 1   
    30    17    19 1   
    31    17    40 1   
    32    17    41 1   
    33    19    20 2   
    34    19    42 1   
    35    20    21 1   
    36    20    27 1   
    37    21    22 1   
    38    21    43 1   
    39    21    44 1   
    40    22    23 1   
    41    22    45 1   
    42    22    46 1   
    43    23    24 2   
    44    23    47 1   
    45    24    28 1   
    46    24    29 1   
    47    25    48 1   
    48    25    49 1   
    49    25    50 1   
    50    26    51 1   
    51    26    52 1   
    52    26    53 1   
    53    27    54 1   
    54    27    55 1   
    55    27    56 1   
    56    28    57 1   
    57    28    58 1   
    58    28    59 1   
    59    29    60 1   
    60    29    61 1   
    61    29    62 1   
@<TRIPOS>SUBSTRUCTURE
     1 GGP         1 TEMP              0 ****  ****    0 ROOT
