@<TRIPOS>MOLECULE
VRT
   53    54     1     0     0
SMALL
bcc


@<TRIPOS>ATOM
      1 C01         14.0500    25.8720    -8.5890 c3       911 VRT      -0.132000
      2 C02         14.4600    24.4500    -8.3190 c2       911 VRT      -0.209000
      3 C03         14.1690    23.6280    -7.2900 c2       911 VRT      -0.084000
      4 C04         14.7010    22.1990    -7.3070 c3       911 VRT      -0.138000
      5 C05         15.7930    21.8540    -6.2750 c3       911 VRT      -0.128000
      6 C06         16.9380    22.8270    -6.1850 c2       911 VRT      -0.178000
      7 C07         17.9310    23.0440    -7.0730 c2       911 VRT      -0.100000
      8 C08         18.9320    24.1690    -6.8400 c3       911 VRT      -0.148000
      9 C09         18.6240    25.4770    -7.6130 c3       911 VRT      -0.160000
     10 C10         17.1940    26.0340    -7.3930 c3       911 VRT      -0.200000
     11 C11         17.0180    26.9010    -6.1290 c2       911 VRT       0.327000
     12 C12         15.5400    27.1120    -5.8140 c3       911 VRT      -0.242000
     13 C13         14.7930    27.7340    -6.9840 c3       911 VRT      -0.150000
     14 C14         15.0470    27.0600    -8.3520 c3       911 VRT      -0.115000
     15 C15         16.5880    26.8220    -8.6140 c3       911 VRT      -0.006000
     16 C16         13.3220    23.9970    -6.1080 c3       911 VRT      -0.201000
     17 C17         18.1210    22.2620    -8.3410 c3       911 VRT      -0.191000
     18 C18         17.8010    26.5540    -4.8790 c3       911 VRT      -0.302000
     19 C19         16.7970    26.1130    -9.9710 c3       911 VRT      -0.223500
     20 C20         17.3400    28.1620    -8.7180 c3       911 VRT      -0.223500
     21 H01         15.0560    24.0180    -9.1210 ha       911 VRT       0.128000
     22 H02         16.8920    23.4640    -5.3020 ha       911 VRT       0.081000
     23 H03         15.0860    21.9570    -8.3070 hc       911 VRT       0.104000
     24 H04         14.7950    27.7370    -9.1680 hc       911 VRT       0.125000
     25 H07         16.6370    25.1060    -7.2640 hc       911 VRT       0.223000
     26 H08         13.8550    21.5140    -7.1600 hc       911 VRT       0.104000
     27 H09         16.1790    20.8480    -6.4780 hc       911 VRT       0.102500
     28 H10         15.3300    21.7900    -5.2820 hc       911 VRT       0.102500
     29 H11         19.9320    23.8190    -7.1280 hc       911 VRT       0.099500
     30 H12         19.0120    24.3750    -5.7680 hc       911 VRT       0.099500
     31 H13         18.7910    25.2520    -8.6710 hc       911 VRT       0.113500
     32 H14         19.3690    26.2380    -7.3530 hc       911 VRT       0.113500
     33 H15         15.4330    27.7800    -4.9510 hc       911 VRT       0.163000
     34 H16         15.0810    26.1590    -5.5340 hc       911 VRT       0.163000
     35 H17         15.0920    28.7880    -7.0560 hc       911 VRT       0.117000
     36 H18         13.7200    27.7600    -6.7580 hc       911 VRT       0.117000
     37 H19         12.4560    23.3300    -6.0420 hc       911 VRT       0.092333
     38 H20         13.8980    23.9050    -5.1820 hc       911 VRT       0.092333
     39 H21         12.9440    25.0210    -6.1570 hc       911 VRT       0.092333
     40 H22         19.1350    21.8510    -8.3820 hc       911 VRT       0.097000
     41 H23         17.4300    21.4200    -8.4280 hc       911 VRT       0.097000
     42 H24         17.9740    22.9070    -9.2130 hc       911 VRT       0.097000
     43 H25         18.8780    26.5720    -5.0640 hc       911 VRT       0.166333
     44 H26         17.6220    27.3040    -4.1000 hc       911 VRT       0.166333
     45 H27         17.5140    25.5800    -4.4750 hc       911 VRT       0.166333
     46 H28         17.8090    26.2750   -10.3610 hc       911 VRT       0.094833
     47 H29         16.6640    25.0330    -9.9070 hc       911 VRT       0.094833
     48 H30         16.1070    26.4990   -10.7280 hc       911 VRT       0.094833
     49 H31         17.5090    28.5630    -7.7180 hc       911 VRT       0.094833
     50 H32         16.7460    28.8680    -9.2970 hc       911 VRT       0.094833
     51 H33         18.2980    28.0030    -9.2110 hc       911 VRT       0.094833
     52 H05         13.0970    26.0880    -8.0920 hc       911 VRT       0.106000
     53 H06         13.7900    25.8940    -9.6580 hc       911 VRT       0.106000
@<TRIPOS>BOND
     1     1     2 1   
     2     1    14 1   
     3     1    52 1   
     4     1    53 1   
     5     2     3 1   
     6     2    21 1   
     7     3     4 1   
     8     3    16 1   
     9     4     5 1   
    10     4    23 1   
    11     4    26 1   
    12     5     6 1   
    13     5    27 1   
    14     5    28 1   
    15     6     7 1   
    16     6    22 1   
    17     7     8 1   
    18     7    17 1   
    19     8     9 1   
    20     8    29 1   
    21     8    30 1   
    22     9    10 1   
    23     9    31 1   
    24     9    32 1   
    25    10    11 1   
    26    10    15 1   
    27    10    25 1   
    28    11    12 1   
    29    11    18 1   
    30    12    13 1   
    31    12    33 1   
    32    12    34 1   
    33    13    14 1   
    34    13    35 1   
    35    13    36 1   
    36    14    15 1   
    37    14    24 1   
    38    15    19 1   
    39    15    20 1   
    40    16    37 1   
    41    16    38 1   
    42    16    39 1   
    43    17    40 1   
    44    17    41 1   
    45    17    42 1   
    46    18    43 1   
    47    18    44 1   
    48    18    45 1   
    49    19    46 1   
    50    19    47 1   
    51    19    48 1   
    52    20    49 1   
    53    20    50 1   
    54    20    51 1   
@<TRIPOS>SUBSTRUCTURE
     1 VRT         1 TEMP              0 ****  ****    0 ROOT
