# created with PyMOL 2.5.5
@<TRIPOS>MOLECULE
DMAPP_A_new
23 22 1                 
SMALL
USER_CHARGES
@<TRIPOS>ATOM
1	  PA	26.847	45.914	6.678	p5	344	DMA	0.000	
2	  PB	28.849	44.896	4.952	p5	344	DMA	0.000	
3	  C1	27.729	46.668	9.016	c3	344	DMA	0.000	
4	  O1	28.049	46.268	7.683	os	344	DMA	0.000	
5	 O1A	25.783	45.139	7.606	o	344	DMA	-1.000	
6	 O1B	28.585	45.566	3.508	o	344	DMA	-1.000	
7	  C2	28.956	46.497	9.915	c2	344	DMA	0.000	
8	 O2A	26.265	47.091	5.998	o	344	DMA	0.000	
9	 O2B	29.735	45.933	5.797	o	344	DMA	-1.000	
10	  C3	28.679	47.172	11.253	c2	344	DMA	0.000	
11	 O3A	27.414	44.793	5.679	os	344	DMA	0.000	
12	 O3B	29.453	43.553	4.865	o       344	DMA	0.000	
13	  C4	28.460	46.343	12.519	c3	344	DMA	0.000	
14	  C5	28.609	48.562	11.304	c3	344	DMA	0.000	
15	 H03	29.875	45.978	9.643	c2	344	DMA	0.000	
16	 H01	26.916	46.048	9.394	h1	344	DMA	0.000	
17	 H02	27.422	47.715	9.018	h1	344	DMA	0.000	
18	 H04	27.436	46.478	12.868  hc	344	DMA	0.000	
19	 H05	28.631	45.289	12.298	hc	344	DMA	0.000	
20	 H06	29.153	46.669	13.294	hc	344	DMA	0.000	
21	 H07	28.148	48.868	12.244	hc	344	DMA	0.000	
22	 H08	29.614	48.981	11.239	hc	344	DMA	0.000	
23	 H09	28.008	48.927	10.470	hc	344	DMA	0.000	
@<TRIPOS>BOND
1 1 5 1
2 1 8 2
3 1 11 1
4 2 6 1
5 2 9 1
6 2 12 2
7 3 7 1
8 3 16 1
9 3 17 1
10 1 4 1
11 3 4 1
12 7 10 2
13 7 15 1
14 10 13 1
15 10 14 1
16 2 11 1
17 13 18 1
18 13 19 1
19 13 20 1
20 14 21 1
21 14 22 1
22 14 23 1
@<TRIPOS>SUBSTRUCTURE
1	DMA	1	GROUP	1 A	DMA
