@<TRIPOS>MOLECULE
DMA
   23    22     1     0     0
SMALL
bcc


@<TRIPOS>ATOM
      1 O1          28.0490    46.2680     7.6830 os       344 DMA      -0.558200
      2 C1          27.7290    46.6680     9.0160 c3       344 DMA       0.230600
      3 C2          28.9560    46.4970     9.9150 c2       344 DMA      -0.063200
      4 C3          28.6790    47.1720    11.2530 c2       344 DMA      -0.291400
      5 C4          28.4600    46.3430    12.5190 c3       344 DMA      -0.012900
      6 C5          28.6090    48.5620    11.3040 c3       344 DMA      -0.012900
      7 H01         26.9160    46.0480     9.3940 h1       344 DMA       0.020200
      8 H02         27.4220    47.7150     9.0180 h1       344 DMA       0.020200
      9 H03         29.8760    45.9790     9.6440 ha       344 DMA       0.143000
     10 H04         27.4360    46.4780    12.8680 hc       344 DMA       0.004200
     11 H05         28.6310    45.2890    12.2980 hc       344 DMA       0.004200
     12 H06         29.1530    46.6690    13.2940 hc       344 DMA       0.004200
     13 H07         28.1480    48.8680    12.2440 hc       344 DMA       0.004200
     14 H08         29.6140    48.9810    11.2390 hc       344 DMA       0.004200
     15 H09         28.0080    48.9270    10.4700 hc       344 DMA       0.004200
     16 PA          26.8470    45.9140     6.6780 p5       344 DMA       1.574800
     17 O1A         25.7830    45.1390     7.6060 o        344 DMA      -0.929500
     18 O2A         26.2650    47.0910     5.9980 o        344 DMA      -0.929500
     19 O3A         27.4140    44.7930     5.6790 os       344 DMA      -0.799800
     20 PB          28.8490    44.8960     4.9520 p5       344 DMA       1.459900
     21 O1B         28.5850    45.5660     3.5080 o        344 DMA      -0.958833
     22 O2B         29.7350    45.9330     5.7970 o        344 DMA      -0.958833
     23 O3B         29.4530    43.5530     4.8650 o        344 DMA      -0.958833
@<TRIPOS>BOND
     1     1     2 1   
     2     1    16 1   
     3     2     3 1   
     4     2     7 1   
     5     2     8 1   
     6     3     4 2   
     7     3     9 1   
     8     4     5 1   
     9     4     6 1   
    10     5    10 1   
    11     5    11 1   
    12     5    12 1   
    13     6    13 1   
    14     6    14 1   
    15     6    15 1   
    16    16    17 1   
    17    16    18 1   
    18    16    19 1   
    19    19    20 1   
    20    20    21 1   
    21    20    22 1   
    22    20    23 1   
@<TRIPOS>SUBSTRUCTURE
     1 DMA         1 TEMP              0 ****  ****    0 ROOT
