# created with PyMOL 2.5.5
@<TRIPOS>MOLECULE
DMAPP_B_new
23 22 1                 
SMALL
USER_CHARGES
@<TRIPOS>ATOM
1	  PA	26.539	24.856	28.911	p5	344	DMB	0.000	
2	  PB	23.774	24.264	29.091	p5	344	DMB	0.000	
3	  C1	27.161	27.294	29.607	c3	344	DMB	0.000	
4	  O1	26.167	26.268	29.580	os	344	DMB	0.000	
5	 O1A	27.434	25.257	27.634	o	344	DMB	-1.000	
6	 O1B	23.667	22.817	29.796	o	344	DMB	-1.000	
7	  C2	26.494	28.653	29.832  c2	344	DMB	0.000	
8	 O2A	27.229	23.920	29.824	o	344	DMB	0.000	
9	 O2B	23.886	25.352	30.265	o	344	DMB	-1.000	
10	  C3	27.577	29.686	30.122  c2	344	DMB	0.000	
11	 O3A	25.174	24.281	28.291  os	344	DMB	0.000	
12	 O3B	22.669	24.534	28.152	o	344	DMB	0.000	
13	  C4	27.922	30.768	29.098  c3	344	DMB	0.000	
14	  C5	28.265	29.618	31.331	c3	344	DMB	0.000	
15	 H03	25.423	28.850	29.792	ha	344	DMB	0.000	
16	 H01	27.693	27.306	28.655	h1	344	DMB	0.000	
17	 H02	27.865	27.097	30.416	h1	344	DMB	0.000	
18	 H04	28.940	30.617	28.740	hc	344	DMB	0.000	
19	 H05	27.230	30.708	28.258	hc	344	DMB	0.000	
20	 H06	27.844	31.750	29.565	hc	344	DMB	0.000	
21	 H07	29.162	30.235	31.273	hc	344	DMB	0.000	
22	 H08	27.625	29.983	32.135	hc	344	DMB	0.000	
23	 H09	28.548	28.584	31.531	hc	344	DMB	0.000	
@<TRIPOS>BOND
1 1 5 1
2 1 8 2
3 1 11 1
4 2 6 1
5 2 9 1
6 2 12 2
7 3 7 1
8 3 16 1
9 3 17 1
10 1 4 1
11 3 4 1
12 7 10 2
13 7 15 1
14 10 13 1
15 10 14 1
16 2 11 1
17 13 18 1
18 13 19 1
19 13 20 1
20 14 21 1
21 14 22 1
22 14 23 1
@<TRIPOS>SUBSTRUCTURE
1	DMB	1	GROUP	1 B	DMB
