@<TRIPOS>MOLECULE
DMB
   23    22     1     0     0
SMALL
bcc


@<TRIPOS>ATOM
      1 O1          26.1670    26.2680    29.5800 os       344 DMB      -0.558200
      2 C1          27.1610    27.2940    29.6070 c3       344 DMB       0.230600
      3 C2          26.4940    28.6530    29.8320 c2       344 DMB      -0.063200
      4 C3          27.5770    29.6860    30.1220 c2       344 DMB      -0.291400
      5 C4          27.9220    30.7680    29.0980 c3       344 DMB      -0.012900
      6 C5          28.2650    29.6180    31.3310 c3       344 DMB      -0.012900
      7 H01         27.6930    27.3060    28.6550 h1       344 DMB       0.020200
      8 H02         27.8650    27.0970    30.4160 h1       344 DMB       0.020200
      9 H03         25.4230    28.8500    29.7920 ha       344 DMB       0.143000
     10 H04         28.9400    30.6170    28.7400 hc       344 DMB       0.004200
     11 H05         27.2300    30.7080    28.2580 hc       344 DMB       0.004200
     12 H06         27.8440    31.7500    29.5650 hc       344 DMB       0.004200
     13 H07         29.1620    30.2350    31.2730 hc       344 DMB       0.004200
     14 H08         27.6250    29.9830    32.1350 hc       344 DMB       0.004200
     15 H09         28.5480    28.5840    31.5310 hc       344 DMB       0.004200
     16 PA          26.5390    24.8560    28.9110 p5       344 DMB       1.574800
     17 O1A         27.4340    25.2570    27.6340 o        344 DMB      -0.929500
     18 O2A         27.2290    23.9200    29.8240 o        344 DMB      -0.929500
     19 O3A         25.1740    24.2810    28.2910 os       344 DMB      -0.799800
     20 PB          23.7740    24.2640    29.0910 p5       344 DMB       1.459900
     21 O1B         23.6670    22.8170    29.7960 o        344 DMB      -0.958833
     22 O2B         23.8860    25.3520    30.2650 o        344 DMB      -0.958833
     23 O3B         22.6690    24.5340    28.1520 o        344 DMB      -0.958833
@<TRIPOS>BOND
     1     1     2 1   
     2     1    16 1   
     3     2     3 1   
     4     2     7 1   
     5     2     8 1   
     6     3     4 2   
     7     3     9 1   
     8     4     5 1   
     9     4     6 1   
    10     5    10 1   
    11     5    11 1   
    12     5    12 1   
    13     6    13 1   
    14     6    14 1   
    15     6    15 1   
    16    16    17 1   
    17    16    18 1   
    18    16    19 1   
    19    19    20 1   
    20    20    21 1   
    21    20    22 1   
    22    20    23 1   
@<TRIPOS>SUBSTRUCTURE
     1 DMB         1 TEMP              0 ****  ****    0 ROOT
