# created with PyMOL 2.5.5
@<TRIPOS>MOLECULE
IPP_1A_new
23 22 1                 
SMALL
USER_CHARGES
@<TRIPOS>ATOM
1	  PA	35.138	48.455	5.691	p5	343	IPA	0.000	
2	  PB	37.410	46.745	5.540	p5	343	IPA	0.000	
3	  C1	32.931	47.540	6.807	c3	343	IPA	0.000	
4	  O1	34.178	47.250	6.175	os	343	IPA	0.000	
5	 O1A	34.288	49.262	4.584	o	343	IPA	0.000	
6	 O1B	37.627	47.188	7.072	o	343	IPA	0.000	
7	  C2	32.030	48.295	5.827	c3	343	IPA	0.000	
8	 O2A	35.589	49.324	6.787	o	343	IPA	0.000	
9	 O2B	36.701	45.297	5.565	o	343	IPA	0.000	
10	  C3	30.770	48.802	6.527	c2	343	IPA	0.000	
11	 O3A	36.341	47.752	4.874	os	343	IPA	0.000	
12	 O3B	38.678	46.721	4.785	o	343	IPA	0.000	
13	  C4	30.737	48.944	8.046	c3	343	IPA	0.000	
14	  C5	29.655	49.149	5.765	c2	343	IPA	0.000	
15	 H08	29.685	49.052	4.680	ha	343	IPA	0.000	
16	 H09	28.754	49.517	6.255	ha	343	IPA	0.000	
17	 H01	33.104	48.154	7.691	h1	343	IPA	0.000	
18	 H02	32.448	46.609	7.104	h1	343	IPA	0.000	
19	 H03	31.735	47.614	5.028	hc	343	IPA	0.000	
20	 H04	32.579	49.144	5.418	hc	343	IPA	0.000	
21	 H05	29.703	48.933	8.390	hc	343	IPA	0.000	
22	 H06	31.279	48.115	8.501	hc	343	IPA	0.000	
23	 H07	31.205	49.885	8.334	hc	343	IPA	0.000	
@<TRIPOS>BOND
1 1 5 1
2 1 8 2
3 1 11 1
4 2 6 1
5 2 9 1
6 2 12 2
7 3 7 1
8 3 17 1
9 3 18 1
10 1 4 1
11 3 4 1
12 7 10 1
13 7 19 1
14 7 20 1
15 10 13 1
16 10 14 2
17 2 11 1
18 13 21 1
19 13 22 1
20 13 23 1
21 14 15 1
22 14 16 1
@<TRIPOS>SUBSTRUCTURE
1	IPA	1	GROUP	1 A	IPA
