@<TRIPOS>MOLECULE
IPA
   23    22     1     0     0
SMALL
bcc


@<TRIPOS>ATOM
      1 O1          34.1780    47.2500     6.1750 os       343 IPA      -0.562200
      2 C1          32.9310    47.5400     6.8070 c3       343 IPA       0.253400
      3 C2          32.0300    48.2950     5.8270 c3       343 IPA      -0.104200
      4 C3          30.7700    48.8020     6.5270 c2       343 IPA      -0.003400
      5 C4          30.7370    48.9440     8.0460 c3       343 IPA      -0.117900
      6 C5          29.6550    49.1490     5.7650 c2       343 IPA      -0.365000
      7 H01         33.1040    48.1540     7.6910 h1       343 IPA      -0.013800
      8 H02         32.4480    46.6090     7.1040 h1       343 IPA      -0.013800
      9 H03         31.7350    47.6140     5.0280 hc       343 IPA       0.040200
     10 H04         32.5790    49.1440     5.4180 hc       343 IPA       0.040200
     11 H05         29.7030    48.9330     8.3900 hc       343 IPA       0.067033
     12 H06         31.2790    48.1150     8.5010 hc       343 IPA       0.067033
     13 H07         31.2050    49.8850     8.3340 hc       343 IPA       0.067033
     14 H08         29.6850    49.0520     4.6790 ha       343 IPA       0.071500
     15 H09         28.7530    49.5180     6.2530 ha       343 IPA       0.071500
     16 PA          35.1380    48.4550     5.6910 p5       343 IPA       1.584800
     17 O1A         34.2880    49.2620     4.5840 o        343 IPA      -0.933500
     18 O2A         35.5890    49.3240     6.7870 o        343 IPA      -0.933500
     19 O3A         36.3410    47.7520     4.8740 os       343 IPA      -0.800800
     20 PB          37.4100    46.7450     5.5400 p5       343 IPA       1.459900
     21 O1B         37.6270    47.1880     7.0720 o        343 IPA      -0.958167
     22 O2B         36.7010    45.2970     5.5650 o        343 IPA      -0.958167
     23 O3B         38.6780    46.7210     4.7850 o        343 IPA      -0.958167
@<TRIPOS>BOND
     1     1     2 1   
     2     1    16 1   
     3     2     3 1   
     4     2     7 1   
     5     2     8 1   
     6     3     4 1   
     7     3     9 1   
     8     3    10 1   
     9     4     5 1   
    10     4     6 2   
    11     5    11 1   
    12     5    12 1   
    13     5    13 1   
    14     6    14 1   
    15     6    15 1   
    16    16    17 1   
    17    16    18 1   
    18    16    19 1   
    19    19    20 1   
    20    20    21 1   
    21    20    22 1   
    22    20    23 1   
@<TRIPOS>SUBSTRUCTURE
     1 IPA         1 TEMP              0 ****  ****    0 ROOT
