# created with PyMOL 2.5.5
@<TRIPOS>MOLECULE
IPP_1B_new
23 22 1                 
SMALL
USER_CHARGES
@<TRIPOS>ATOM
1	  PA	20.669	27.514	34.797	p5	343	IPB	0.000	
2	  PB	18.053	28.490	34.235	p5	343	IPB	0.000	
3	  C1	22.487	27.583	32.889	c3	343	IPB	0.000	
4	  O1	21.104	27.590	33.244	os	343	IPB	0.000	
5	 O1A	21.228	26.099	35.330	o	343	IPB	-1.000	
6	 O1B	18.725	29.930	34.495	o	343	IPB	-1.000	
7	  C2	23.118	26.262	33.336	c3	343	IPB	0.000	
8	 O2A	21.157	28.643	35.601	o	343	IPB	0.000	
9	 O2B	17.989	28.282	32.638	o	343	IPB	-1.000	
10	  C3	24.636	26.297	33.160	c2	343	IPB	0.000	
11	 O3A	19.061	27.360	34.791	os	343	IPB	0.000	
12	 O3B	16.718	28.381	34.856	o	343	IPB	0.000	
13	  C4	25.367	27.632	33.047	c3	343	IPB	0.000	
14	  C5	25.349	25.099	33.119	c2	343	IPB	0.000	
15	 H08	24.823	24.148	33.206	ha	343	IPB	0.000	
16	 H09	26.432	25.113	33.000	ha	343	IPB	0.000	
17	 H01	22.994	28.414	33.380	h1	343	IPB	0.000	
18	 H02	22.587	27.688	31.809	h1	343	IPB	0.000	
19	 H03	22.714	25.457	32.721	hc	343	IPB	0.000	
20	 H04	22.883	26.091	34.387	hc	343	IPB	0.000	
21	 H05	26.327	27.479	32.554	hc	343	IPB	0.000	
22	 H06	24.766	28.328	32.462	hc	343	IPB	0.000	
23	 H07	25.532	28.042	34.043	hc	343	IPB	0.000	
@<TRIPOS>BOND
1 1 5 1
2 1 8 2
3 1 11 1
4 2 6 1
5 2 9 1
6 2 12 2
7 3 7 1
8 3 17 1
9 3 18 1
10 1 4 1
11 3 4 1
12 7 10 1
13 7 19 1
14 7 20 1
15 10 13 1
16 10 14 2
17 2 11 1
18 13 21 1
19 13 22 1
20 13 23 1
21 14 15 1
22 14 16 1
@<TRIPOS>SUBSTRUCTURE
1	IPB	1	GROUP	1 B	IPB
