@<TRIPOS>MOLECULE
IPB
   23    22     1     0     0
SMALL
bcc


@<TRIPOS>ATOM
      1 O1          21.1040    27.5900    33.2440 os       343 IPB      -0.562200
      2 C1          22.4870    27.5830    32.8890 c3       343 IPB       0.253400
      3 C2          23.1180    26.2620    33.3360 c3       343 IPB      -0.104200
      4 C3          24.6360    26.2970    33.1600 c2       343 IPB      -0.003400
      5 C4          25.3670    27.6320    33.0470 c3       343 IPB      -0.117900
      6 C5          25.3490    25.0990    33.1190 c2       343 IPB      -0.365000
      7 H01         22.9940    28.4140    33.3800 h1       343 IPB      -0.013800
      8 H02         22.5870    27.6880    31.8090 h1       343 IPB      -0.013800
      9 H03         22.7140    25.4570    32.7210 hc       343 IPB       0.040200
     10 H04         22.8830    26.0910    34.3870 hc       343 IPB       0.040200
     11 H05         26.3270    27.4790    32.5540 hc       343 IPB       0.067033
     12 H06         24.7660    28.3280    32.4620 hc       343 IPB       0.067033
     13 H07         25.5320    28.0420    34.0430 hc       343 IPB       0.067033
     14 H08         24.8230    24.1480    33.2060 ha       343 IPB       0.071500
     15 H09         26.4320    25.1130    33.0000 ha       343 IPB       0.071500
     16 PA          20.6690    27.5140    34.7970 p5       343 IPB       1.584800
     17 O1A         21.2280    26.0990    35.3300 o        343 IPB      -0.933500
     18 O2A         21.1570    28.6430    35.6010 o        343 IPB      -0.933500
     19 O3A         19.0610    27.3600    34.7910 os       343 IPB      -0.800800
     20 PB          18.0530    28.4900    34.2350 p5       343 IPB       1.459900
     21 O1B         18.7250    29.9300    34.4950 o        343 IPB      -0.958167
     22 O2B         17.9890    28.2820    32.6380 o        343 IPB      -0.958167
     23 O3B         16.7180    28.3810    34.8560 o        343 IPB      -0.958167
@<TRIPOS>BOND
     1     1     2 1   
     2     1    16 1   
     3     2     3 1   
     4     2     7 1   
     5     2     8 1   
     6     3     4 1   
     7     3     9 1   
     8     3    10 1   
     9     4     5 1   
    10     4     6 2   
    11     5    11 1   
    12     5    12 1   
    13     5    13 1   
    14     6    14 1   
    15     6    15 1   
    16    16    17 1   
    17    16    18 1   
    18    16    19 1   
    19    19    20 1   
    20    20    21 1   
    21    20    22 1   
    22    20    23 1   
@<TRIPOS>SUBSTRUCTURE
     1 IPB         1 TEMP              0 ****  ****    0 ROOT
