# created with PyMOL 2.5.5
@<TRIPOS>MOLECULE
GPP_A_new
36 35 1                 
SMALL
USER_CHARGES
@<TRIPOS>ATOM
1	  PA	27.585	45.375	6.053	p5	344	GPA	0.000	
2	  PB	29.878	44.394	4.649	p5	344	GPA	0.000	
3	  C1	29.080	45.480	8.268	c3	344	GPA	0.000	
4	  O1	27.915	45.889	7.544	os	344	GPA	0.000	
5	 O1A	27.266	43.791	6.118	o	344	GPA	-1.000	
6	 O1B	29.887	44.594	3.051	o	344	GPA	-1.000	
7	  C2	28.917	45.767	9.622	c2	344	GPA	0.000	
8	 O2A	26.466	46.178	5.504	o	344	GPA	0.000	
9	 O2B	31.343	44.798	5.188	o	344	GPA	-1.000	
10	  C3	29.768	46.464	10.469	c2	344	GPA	0.000	
11	 O3A	28.941	45.580	5.212	os	344	GPA	0.000	
12	 O3B	29.493	43.016	5.006	o	344	GPA	0.000	
13	  C4	31.089	47.039	9.950	c3	344	GPA	0.000	
14	  C5	29.376	46.658	11.935	c3	344	GPA	0.000	
15	  C6	28.459	45.510	12.372	c3	344	GPA	0.000	
16	  C7	27.918	45.685	13.637	c2	344	GPA	0.000	
17	  C8	27.735	44.703	14.613	c2	344	GPA	0.000	
18	  C9	27.102	45.086	15.952	c3	344	GPA	0.000	
19	 C10	28.170	43.257	14.367	c3	344	GPA	0.000	
20	 H03	27.999	45.395	10.077	ha	344	GPA	0.000	
21	 H11	27.602	46.695	13.897	ha	344	GPA	0.000	
22	 H01	29.948	46.018	7.887	h1	344	GPA	0.000	
23	 H02	29.229	44.408	8.140	h1	344	GPA	0.000	
24	 H04	31.872	46.286	10.039	hc	344	GPA	0.000	
25	 H05	30.976	47.323	8.904	hc	344	GPA	0.000	
26	 H06	31.360	47.916	10.538	hc	344	GPA	0.000	
27	 H07	28.852	47.607	12.049	hc	344	GPA	0.000	
28	 H08	30.273	46.664	12.554	hc	344	GPA	0.000	
29	 H09	29.070	44.608	12.407	hc	344	GPA	0.000	
30	 H10	27.642	45.428	11.655	hc	344	GPA	0.000	
31	 H12	26.088	44.689	16.000	hc	344	GPA	0.000	
32	 H13	27.694	44.669	16.767	hc	344	GPA	0.000	
33	 H14	27.072	46.172	16.043	hc	344	GPA	0.000	
34	 H15	29.141	43.086	14.832	hc	344	GPA	0.000	
35	 H16	27.436	42.577	14.800	hc	344	GPA	0.000	
36	 H17	28.245	43.077	13.295	hc	344	GPA	0.000	
@<TRIPOS>BOND
1 1 5 1
2 1 8 2
3 1 11 1
4 2 6 1
5 2 9 1
6 2 12 2
7 3 7 1
8 3 22 1
9 3 23 1
10 1 4 1
11 3 4 1
12 7 10 2
13 7 20 1
14 10 13 1
15 10 14 1
16 2 11 1
17 13 24 1
18 13 25 1
19 13 26 1
20 14 15 1
21 14 27 1
22 14 28 1
23 15 16 1
24 15 29 1
25 15 30 1
26 16 17 2
27 16 21 1
28 17 18 1
29 17 19 1
30 18 31 1
31 18 32 1
32 18 33 1
33 19 34 1
34 19 35 1
35 19 36 1
@<TRIPOS>SUBSTRUCTURE
1	GPA	1	GROUP	1 A	GPA
