@<TRIPOS>MOLECULE
GPA
   36    35     1     0     0
SMALL
bcc


@<TRIPOS>ATOM
      1 O1          27.9150    45.8890     7.5440 os       344 GPA      -0.597200
      2 C1          29.0800    45.4800     8.2680 c3       344 GPA       0.162600
      3 C2          28.9170    45.7670     9.6220 c2       344 GPA      -0.084200
      4 C3          29.7680    46.4640    10.4690 c2       344 GPA      -0.248400
      5 C4          31.0890    47.0390     9.9500 c3       344 GPA      -0.068900
      6 C5          29.3760    46.6580    11.9350 c3       344 GPA       0.001800
      7 C6          28.4590    45.5100    12.3720 c3       344 GPA      -0.074200
      8 C7          27.9180    45.6850    13.6370 c2       344 GPA      -0.115200
      9 C8          27.7350    44.7030    14.6130 c2       344 GPA      -0.197400
     10 C9          27.1020    45.0860    15.9520 c3       344 GPA      -0.040400
     11 C10         28.1700    43.2570    14.3670 c3       344 GPA      -0.040400
     12 H01         29.9480    46.0180     7.8870 h1       344 GPA       0.076700
     13 H02         29.2290    44.4080     8.1400 h1       344 GPA       0.076700
     14 H03         27.9990    45.3950    10.0770 ha       344 GPA       0.098000
     15 H04         31.8720    46.2860    10.0390 hc       344 GPA       0.047033
     16 H05         30.9760    47.3230     8.9040 hc       344 GPA       0.047033
     17 H06         31.3600    47.9160    10.5380 hc       344 GPA       0.047033
     18 H07         28.8520    47.6070    12.0490 hc       344 GPA      -0.000800
     19 H08         30.2730    46.6640    12.5540 hc       344 GPA      -0.000800
     20 H09         29.0700    44.6080    12.4070 hc       344 GPA       0.080200
     21 H10         27.6420    45.4280    11.6550 hc       344 GPA       0.080200
     22 H11         27.6020    46.6950    13.8970 ha       344 GPA       0.097000
     23 H12         26.0880    44.6890    16.0000 hc       344 GPA       0.026533
     24 H13         27.6940    44.6690    16.7670 hc       344 GPA       0.026533
     25 H14         27.0720    46.1720    16.0430 hc       344 GPA       0.026533
     26 H15         29.1410    43.0860    14.8320 hc       344 GPA       0.026533
     27 H16         27.4360    42.5770    14.8000 hc       344 GPA       0.026533
     28 H17         28.2450    43.0770    13.2950 hc       344 GPA       0.026533
     29 PA          27.5850    45.3750     6.0530 p5       344 GPA       1.571800
     30 O1A         27.2660    43.7910     6.1180 o        344 GPA      -0.921500
     31 O2A         26.4660    46.1780     5.5040 o        344 GPA      -0.921500
     32 O3A         28.9410    45.5800     5.2120 os       344 GPA      -0.822800
     33 PB          29.8780    44.3940     4.6490 p5       344 GPA       1.467900
     34 O1B         29.8870    44.5940     3.0510 o        344 GPA      -0.958833
     35 O2B         31.3430    44.7980     5.1880 o        344 GPA      -0.958833
     36 O3B         29.4930    43.0160     5.0060 o        344 GPA      -0.958833
@<TRIPOS>BOND
     1     1     2 1   
     2     1    29 1   
     3     2     3 1   
     4     2    12 1   
     5     2    13 1   
     6     3     4 2   
     7     3    14 1   
     8     4     5 1   
     9     4     6 1   
    10     5    15 1   
    11     5    16 1   
    12     5    17 1   
    13     6     7 1   
    14     6    18 1   
    15     6    19 1   
    16     7     8 1   
    17     7    20 1   
    18     7    21 1   
    19     8     9 2   
    20     8    22 1   
    21     9    10 1   
    22     9    11 1   
    23    10    23 1   
    24    10    24 1   
    25    10    25 1   
    26    11    26 1   
    27    11    27 1   
    28    11    28 1   
    29    29    30 1   
    30    29    31 1   
    31    29    32 1   
    32    32    33 1   
    33    33    34 1   
    34    33    35 1   
    35    33    36 1   
@<TRIPOS>SUBSTRUCTURE
     1 GPA         1 TEMP              0 ****  ****    0 ROOT
