# created with PyMOL 2.5.5
@<TRIPOS>MOLECULE
GPP_B_new
36 35 1                 
SMALL
USER_CHARGES
@<TRIPOS>ATOM
1	  PA	26.029	24.692	29.149	p5	344	GPB	0.000	
2	  PB	23.197	24.394	29.020	p5	344	GPB	0.000	
3	  C1	25.505	27.248	29.084	c3	344	GPB	0.000	
4	  O1	25.987	26.100	28.376	os	344	GPB	0.000	
5	 O1A	27.268	23.812	28.622	o3	344	GPB	-1.000	
6	 O1B	22.458	23.186	29.784	o	344	GPB	-1.000	
7	  C2	26.445	28.270	29.055	c2	344	GPB	0.000	
8	 O2A	26.127	24.921	30.606	o	344	GPB	0.000	
9	 O2B	23.240	25.629	30.048	o	344	GPB	-1.000	
10	  C3	26.622	29.342	29.926	c2	344	GPB	0.000	
11	 O3A	24.701	23.874	28.761	os	344	GPB	0.000	
12	 O3B	22.550	24.723	27.732	o	344	GPB	0.000	
13	  C4	25.696	29.563	31.125	c3	344	GPB	0.000	
14	  C5	27.756	30.324	29.641  c3	344	GPB	0.000	
15	  C6	27.737	30.680	28.151	c3	344	GPB	0.000	
16	  C7	28.793	31.500	27.766	c2	344	GPB	0.000	
17	  C8	28.818	32.347	26.665	c2	344	GPB	0.000	
18	  C9	30.075	33.176	26.378	c3	344	GPB	0.000	
19	 C10	27.595	32.459	25.751	c3	344	GPB	0.000	
20	 H03	27.151	28.226	28.225	ha	344	GPB	0.000	
21	 H11	29.687	31.476	28.389	ha	344	GPB	0.000	
22	 H01	25.321	26.969	30.122	h1	344	GPB	0.000	
23	 H02	24.582	27.595	28.619	h1	344	GPB	0.000	
24	 H04	24.729	29.100	30.927	hc	344	GPB	0.000	
25	 H05	26.138	29.113	32.014	hc	344	GPB	0.000	
26	 H06	25.560	30.632	31.288	hc	344	GPB	0.000	
27	 H07	28.713	29.871	29.901	hc	344	GPB	0.000	
28	 H08	27.618	31.227	30.236	hc	344	GPB	0.000	
29	 H09	26.816	31.232	27.964	hc	344	GPB	0.000	
30	 H10	27.787	29.757	27.574	hc	344	GPB	0.000	
31	 H12	30.893	32.511	26.101	hc	344	GPB	0.000	
32	 H13	29.876	33.867	25.559	hc	344	GPB	0.000	
33	 H14	30.351	33.739	27.270	hc	344	GPB	0.000	
34	 H15	26.804	33.003	26.268	hc	344	GPB	0.000	
35	 H16	27.868	32.994	24.841	hc	344	GPB	0.000	
36	 H17	27.240	31.461	25.494	hc	344	GPB	0.000	
@<TRIPOS>BOND
1 1 5 1
2 1 8 2
3 1 11 1
4 2 6 1
5 2 9 1
6 2 12 2
7 3 7 1
8 3 22 1
9 3 23 1
10 1 4 1
11 3 4 1
12 7 10 2
13 7 20 1
14 10 13 1
15 10 14 1
16 2 11 1
17 13 24 1
18 13 25 1
19 13 26 1
20 14 15 1
21 14 27 1
22 14 28 1
23 15 16 1
24 15 29 1
25 15 30 1
26 16 17 2
27 16 21 1
28 17 18 1
29 17 19 1
30 18 31 1
31 18 32 1
32 18 33 1
33 19 34 1
34 19 35 1
35 19 36 1
@<TRIPOS>SUBSTRUCTURE
1	GPB	1	GROUP	1 B	GPB
