@<TRIPOS>MOLECULE
GPB
   36    35     1     0     0
SMALL
bcc


@<TRIPOS>ATOM
      1 O1          25.9870    26.1000    28.3760 os       344 GPB      -0.597200
      2 C1          25.5050    27.2480    29.0840 c3       344 GPB       0.161600
      3 C2          26.4450    28.2700    29.0550 c2       344 GPB      -0.078200
      4 C3          26.6220    29.3420    29.9260 c2       344 GPB      -0.251400
      5 C4          25.6960    29.5630    31.1250 c3       344 GPB      -0.067900
      6 C5          27.7560    30.3240    29.6410 c3       344 GPB      -0.005200
      7 C6          27.7370    30.6800    28.1510 c3       344 GPB      -0.066200
      8 C7          28.7930    31.5000    27.7660 c2       344 GPB      -0.106200
      9 C8          28.8180    32.3470    26.6650 c2       344 GPB      -0.206400
     10 C9          30.0750    33.1760    26.3780 c3       344 GPB      -0.037400
     11 C10         27.5950    32.4590    25.7510 c3       344 GPB      -0.037400
     12 H01         25.3210    26.9690    30.1220 h1       344 GPB       0.078700
     13 H02         24.5820    27.5950    28.6190 h1       344 GPB       0.078700
     14 H03         27.1510    28.2260    28.2250 ha       344 GPB       0.097000
     15 H04         24.7290    29.1000    30.9270 hc       344 GPB       0.046700
     16 H05         26.1380    29.1130    32.0140 hc       344 GPB       0.046700
     17 H06         25.5600    30.6320    31.2880 hc       344 GPB       0.046700
     18 H07         28.7130    29.8710    29.9010 hc       344 GPB       0.017200
     19 H08         27.6180    31.2270    30.2360 hc       344 GPB       0.017200
     20 H09         26.8160    31.2320    27.9640 hc       344 GPB       0.055200
     21 H10         27.7870    29.7570    27.5740 hc       344 GPB       0.055200
     22 H11         29.6870    31.4760    28.3890 ha       344 GPB       0.113000
     23 H12         30.8930    32.5110    26.1010 hc       344 GPB       0.023867
     24 H13         29.8760    33.8670    25.5590 hc       344 GPB       0.023867
     25 H14         30.3510    33.7390    27.2700 hc       344 GPB       0.023867
     26 H15         26.8040    33.0030    26.2680 hc       344 GPB       0.023867
     27 H16         27.8680    32.9940    24.8410 hc       344 GPB       0.023867
     28 H17         27.2400    31.4610    25.4940 hc       344 GPB       0.023867
     29 PA          26.0290    24.6920    29.1490 p5       344 GPB       1.571800
     30 O1A         27.2680    23.8120    28.6220 o        344 GPB      -0.921500
     31 O2A         26.1270    24.9210    30.6060 o        344 GPB      -0.921500
     32 O3A         24.7010    23.8740    28.7610 os       344 GPB      -0.822800
     33 PB          23.1970    24.3940    29.0200 p5       344 GPB       1.466900
     34 O1B         22.4580    23.1860    29.7840 o        344 GPB      -0.958833
     35 O2B         23.2400    25.6290    30.0480 o        344 GPB      -0.958833
     36 O3B         22.5500    24.7230    27.7320 o        344 GPB      -0.958833
@<TRIPOS>BOND
     1     1     2 1   
     2     1    29 1   
     3     2     3 1   
     4     2    12 1   
     5     2    13 1   
     6     3     4 2   
     7     3    14 1   
     8     4     5 1   
     9     4     6 1   
    10     5    15 1   
    11     5    16 1   
    12     5    17 1   
    13     6     7 1   
    14     6    18 1   
    15     6    19 1   
    16     7     8 1   
    17     7    20 1   
    18     7    21 1   
    19     8     9 2   
    20     8    22 1   
    21     9    10 1   
    22     9    11 1   
    23    10    23 1   
    24    10    24 1   
    25    10    25 1   
    26    11    26 1   
    27    11    27 1   
    28    11    28 1   
    29    29    30 1   
    30    29    31 1   
    31    29    32 1   
    32    32    33 1   
    33    33    34 1   
    34    33    35 1   
    35    33    36 1   
@<TRIPOS>SUBSTRUCTURE
     1 GPB         1 TEMP              0 ****  ****    0 ROOT
