@<TRIPOS>MOLECULE
IPA
   23    22     1     0     0
SMALL
bcc


@<TRIPOS>ATOM
      1 C1          21.5270    25.9220    34.0180 c3       343 IPA       0.303400
      2 O1          20.1540    26.1750    34.3300 os       343 IPA      -0.552200
      3 C2          21.9840    26.8400    32.8810 c3       343 IPA      -0.135200
      4 C3          23.4920    27.0810    32.9660 c2       343 IPA       0.021600
      5 C4          24.4530    25.9030    33.1520 c2       343 IPA      -0.401000
      6 C5          23.9830    28.3790    32.9190 c3       343 IPA      -0.118900
      7 H01         21.6370    24.8840    33.7050 h1       343 IPA      -0.049800
      8 H02         22.1390    26.1080    34.9010 h1       343 IPA      -0.049800
      9 H03         21.4670    27.7960    32.9680 hc       343 IPA       0.036700
     10 H04         21.7470    26.3740    31.9250 hc       343 IPA       0.036700
     11 H05         25.5250    26.0820    33.2300 ha       343 IPA       0.062000
     12 H06         24.0640    24.8860    33.2070 ha       343 IPA       0.062000
     13 H07         24.9470    28.3840    32.4100 hc       343 IPA       0.062700
     14 H08         23.2830    29.0130    32.3760 hc       343 IPA       0.062700
     15 H09         24.1060    28.7580    33.9330 hc       343 IPA       0.062700
     16 PA          19.7000    27.6740    34.7090 p5       343 IPA       1.606800
     17 O1A         20.2540    27.9920    36.1870 o        343 IPA      -0.943500
     18 O2A         20.1730    28.6590    33.7100 o        343 IPA      -0.943500
     19 O3A         18.0970    27.6330    34.8560 os       343 IPA      -0.728800
     20 PB          17.1680    28.8180    34.2890 p5       343 IPA       1.379900
     21 O1B         18.1360    29.9830    33.7440 o        343 IPA      -0.924833
     22 O2B         16.4240    28.1920    33.0050 o        343 IPA      -0.924833
     23 O3B         16.2220    29.3220    35.3110 o        343 IPA      -0.924833
@<TRIPOS>BOND
     1     1     2 1   
     2     1     3 1   
     3     1     7 1   
     4     1     8 1   
     5     2    16 1   
     6     3     4 1   
     7     3     9 1   
     8     3    10 1   
     9     4     5 2   
    10     4     6 1   
    11     5    11 1   
    12     5    12 1   
    13     6    13 1   
    14     6    14 1   
    15     6    15 1   
    16    16    17 1   
    17    16    18 1   
    18    16    19 1   
    19    19    20 1   
    20    20    21 1   
    21    20    22 1   
    22    20    23 1   
@<TRIPOS>SUBSTRUCTURE
     1 IPA         1 TEMP              0 ****  ****    0 ROOT
